


                               __________________________________________
                              |                                          |
                              |  NUMERICAL ELECTROMAGNETICS CODE (nec2c) |
                              |   Translated to 'C' in Double Precision  |
                              |__________________________________________|



                               ---------------- COMMENTS ----------------
                               TobiaC: Lofar model with Ground
                                --- End Comments ---



                               -------- STRUCTURE SPECIFICATION --------
                                     COORDINATES MUST BE INPUT IN
                                     METERS OR BE SCALED TO METERS
                                     BEFORE STRUCTURE INPUT IS ENDED

  WIRE                                                                                 SEG FIRST  LAST  TAG
   No:        X1         Y1         Z1         X2         Y2         Z2       RADIUS   No:   SEG   SEG  No:
     1     -0.0500     0.0000     1.1000    -0.9339     0.0000     0.1000     0.0010    25     1    25    1
     2      0.0500     0.0000     1.1000     0.9339     0.0000     0.1000     0.0010    25    26    50    2
     3     -0.0500     0.0000     1.1000     0.0500     0.0000     1.1000     0.0015     5    51    55    3

     TOTAL SEGMENTS USED: 55   SEGMENTS IN A SYMMETRIC CELL: 55   SYMMETRY FLAG: 0


                               ---------- SEGMENTATION DATA ----------
                                        COORDINATES IN METERS
                            I+ AND I- INDICATE THE SEGMENTS BEFORE AND AFTER I

   SEG    COORDINATES OF SEGM CENTER     SEGM    ORIENTATION ANGLES    WIRE    CONNECTION DATA   TAG
   No:       X         Y         Z      LENGTH     ALPHA      BETA    RADIUS    I-     I    I+   No:
     1   -0.0677    0.0000    1.0800    0.0534  -48.5272  180.0000    0.0010   -51     1     2     1
     2   -0.1030    0.0000    1.0400    0.0534  -48.5272  180.0000    0.0010     1     2     3     1
     3   -0.1384    0.0000    1.0000    0.0534  -48.5272  180.0000    0.0010     2     3     4     1
     4   -0.1737    0.0000    0.9600    0.0534  -48.5272  180.0000    0.0010     3     4     5     1
     5   -0.2091    0.0000    0.9200    0.0534  -48.5272  180.0000    0.0010     4     5     6     1
     6   -0.2445    0.0000    0.8800    0.0534  -48.5272  180.0000    0.0010     5     6     7     1
     7   -0.2798    0.0000    0.8400    0.0534  -48.5272  180.0000    0.0010     6     7     8     1
     8   -0.3152    0.0000    0.8000    0.0534  -48.5272  180.0000    0.0010     7     8     9     1
     9   -0.3505    0.0000    0.7600    0.0534  -48.5272  180.0000    0.0010     8     9    10     1
    10   -0.3859    0.0000    0.7200    0.0534  -48.5272  180.0000    0.0010     9    10    11     1
    11   -0.4212    0.0000    0.6800    0.0534  -48.5272  180.0000    0.0010    10    11    12     1
    12   -0.4566    0.0000    0.6400    0.0534  -48.5272  180.0000    0.0010    11    12    13     1
    13   -0.4919    0.0000    0.6000    0.0534  -48.5272  180.0000    0.0010    12    13    14     1
    14   -0.5273    0.0000    0.5600    0.0534  -48.5272  180.0000    0.0010    13    14    15     1
    15   -0.5627    0.0000    0.5200    0.0534  -48.5272  180.0000    0.0010    14    15    16     1
    16   -0.5980    0.0000    0.4800    0.0534  -48.5272  180.0000    0.0010    15    16    17     1
    17   -0.6334    0.0000    0.4400    0.0534  -48.5272  180.0000    0.0010    16    17    18     1
    18   -0.6687    0.0000    0.4000    0.0534  -48.5272  180.0000    0.0010    17    18    19     1
    19   -0.7041    0.0000    0.3600    0.0534  -48.5272  180.0000    0.0010    18    19    20     1
    20   -0.7394    0.0000    0.3200    0.0534  -48.5272  180.0000    0.0010    19    20    21     1
    21   -0.7748    0.0000    0.2800    0.0534  -48.5272  180.0000    0.0010    20    21    22     1
    22   -0.8101    0.0000    0.2400    0.0534  -48.5272  180.0000    0.0010    21    22    23     1
    23   -0.8455    0.0000    0.2000    0.0534  -48.5272  180.0000    0.0010    22    23    24     1
    24   -0.8808    0.0000    0.1600    0.0534  -48.5272  180.0000    0.0010    23    24    25     1
    25   -0.9162    0.0000    0.1200    0.0534  -48.5272  180.0000    0.0010    24    25     0     1
    26    0.0677    0.0000    1.0800    0.0534  -48.5272    0.0000    0.0010    55    26    27     2
    27    0.1030    0.0000    1.0400    0.0534  -48.5272    0.0000    0.0010    26    27    28     2
    28    0.1384    0.0000    1.0000    0.0534  -48.5272    0.0000    0.0010    27    28    29     2
    29    0.1737    0.0000    0.9600    0.0534  -48.5272    0.0000    0.0010    28    29    30     2
    30    0.2091    0.0000    0.9200    0.0534  -48.5272    0.0000    0.0010    29    30    31     2
    31    0.2445    0.0000    0.8800    0.0534  -48.5272    0.0000    0.0010    30    31    32     2
    32    0.2798    0.0000    0.8400    0.0534  -48.5272    0.0000    0.0010    31    32    33     2
    33    0.3152    0.0000    0.8000    0.0534  -48.5272    0.0000    0.0010    32    33    34     2
    34    0.3505    0.0000    0.7600    0.0534  -48.5272    0.0000    0.0010    33    34    35     2
    35    0.3859    0.0000    0.7200    0.0534  -48.5272    0.0000    0.0010    34    35    36     2
    36    0.4212    0.0000    0.6800    0.0534  -48.5272    0.0000    0.0010    35    36    37     2
    37    0.4566    0.0000    0.6400    0.0534  -48.5272    0.0000    0.0010    36    37    38     2
    38    0.4919    0.0000    0.6000    0.0534  -48.5272    0.0000    0.0010    37    38    39     2
    39    0.5273    0.0000    0.5600    0.0534  -48.5272    0.0000    0.0010    38    39    40     2
    40    0.5627    0.0000    0.5200    0.0534  -48.5272    0.0000    0.0010    39    40    41     2
    41    0.5980    0.0000    0.4800    0.0534  -48.5272    0.0000    0.0010    40    41    42     2
    42    0.6334    0.0000    0.4400    0.0534  -48.5272    0.0000    0.0010    41    42    43     2
    43    0.6687    0.0000    0.4000    0.0534  -48.5272    0.0000    0.0010    42    43    44     2
    44    0.7041    0.0000    0.3600    0.0534  -48.5272    0.0000    0.0010    43    44    45     2
    45    0.7394    0.0000    0.3200    0.0534  -48.5272    0.0000    0.0010    44    45    46     2
    46    0.7748    0.0000    0.2800    0.0534  -48.5272    0.0000    0.0010    45    46    47     2
    47    0.8101    0.0000    0.2400    0.0534  -48.5272    0.0000    0.0010    46    47    48     2
    48    0.8455    0.0000    0.2000    0.0534  -48.5272    0.0000    0.0010    47    48    49     2
    49    0.8808    0.0000    0.1600    0.0534  -48.5272    0.0000    0.0010    48    49    50     2
    50    0.9162    0.0000    0.1200    0.0534  -48.5272    0.0000    0.0010    49    50     0     2
    51   -0.0400    0.0000    1.1000    0.0200    0.0000    0.0000    0.0015    -1    51    52     3
    52   -0.0200    0.0000    1.1000    0.0200    0.0000    0.0000    0.0015    51    52    53     3
    53    0.0000    0.0000    1.1000    0.0200    0.0000    0.0000    0.0015    52    53    54     3
    54    0.0200    0.0000    1.1000    0.0200    0.0000    0.0000    0.0015    53    54    55     3
    55    0.0400    0.0000    1.1000    0.0200    0.0000    0.0000    0.0015    54    55    26     3



  DATA CARD No:   1 EX   0     3     3     0  1.00000E+00  0.00000E+00  0.00000E+00  0.00000E+00  0.00000E+00  0.00000E+00
  DATA CARD No:   2 FR   0    22     0     0  3.00000E+01  1.00000E+01  2.40000E+02  0.00000E+00  0.00000E+00  0.00000E+00
  DATA CARD No:   3 RP   0    19    37  1010  0.00000E+00  0.00000E+00  1.00000E+01  1.00000E+01  0.00000E+00  0.00000E+00


                               --------- FREQUENCY --------
                                FREQUENCY : 3.0000E+01 MHz
                                WAVELENGTH: 9.9933E+00 Mtr

                        APPROXIMATE INTEGRATION EMPLOYED FOR SEGMENTS 
                        THAT ARE MORE THAN 1.000 WAVELENGTHS APART


                          ------ STRUCTURE IMPEDANCE LOADING ------
                                 THIS STRUCTURE IS NOT LOADED


                            -------- ANTENNA ENVIRONMENT --------
                            FREE SPACE


                             ---------- MATRIX TIMING ----------
                               FILL: 0 msec  FACTOR: 0 msec


                        --------- ANTENNA INPUT PARAMETERS ---------
  TAG   SEG       VOLTAGE (VOLTS)         CURRENT (AMPS)         IMPEDANCE (OHMS)        ADMITTANCE (MHOS)     POWER
  No:   No:     REAL      IMAGINARY     REAL      IMAGINARY     REAL      IMAGINARY    REAL       IMAGINARY   (WATTS)
    3    53  1.0000E+00  0.0000E+00  2.2635E-05  1.7565E-03  7.3352E+00 -5.6922E+02  2.2635E-05  1.7565E-03  1.1318E-05


                           -------- CURRENTS AND LOCATION --------
                                  DISTANCES IN WAVELENGTHS

   SEG  TAG    COORDINATES OF SEGM CENTER     SEGM    ------------- CURRENT (AMPS) -------------
   No:  No:       X         Y         Z      LENGTH     REAL      IMAGINARY    MAGN        PHASE
     1    1   -0.0068    0.0000    0.1081   0.00534 -2.2533E-05 -1.6483E-03  1.6484E-03  -90.783
     2    1   -0.0103    0.0000    0.1041   0.00534 -2.2372E-05 -1.5855E-03  1.5857E-03  -90.808
     3    1   -0.0138    0.0000    0.1001   0.00534 -2.2148E-05 -1.5248E-03  1.5249E-03  -90.832
     4    1   -0.0174    0.0000    0.0961   0.00534 -2.1860E-05 -1.4649E-03  1.4650E-03  -90.855
     5    1   -0.0209    0.0000    0.0921   0.00534 -2.1509E-05 -1.4052E-03  1.4054E-03  -90.877
     6    1   -0.0245    0.0000    0.0881   0.00534 -2.1096E-05 -1.3454E-03  1.3455E-03  -90.898
     7    1   -0.0280    0.0000    0.0841   0.00534 -2.0621E-05 -1.2851E-03  1.2853E-03  -90.919
     8    1   -0.0315    0.0000    0.0801   0.00534 -2.0083E-05 -1.2243E-03  1.2245E-03  -90.940
     9    1   -0.0351    0.0000    0.0761   0.00534 -1.9484E-05 -1.1629E-03  1.1631E-03  -90.960
    10    1   -0.0386    0.0000    0.0720   0.00534 -1.8824E-05 -1.1008E-03  1.1009E-03  -90.980
    11    1   -0.0422    0.0000    0.0680   0.00534 -1.8102E-05 -1.0379E-03  1.0380E-03  -90.999
    12    1   -0.0457    0.0000    0.0640   0.00534 -1.7319E-05 -9.7419E-04  9.7435E-04  -91.018
    13    1   -0.0492    0.0000    0.0600   0.00534 -1.6474E-05 -9.0971E-04  9.0986E-04  -91.037
    14    1   -0.0528    0.0000    0.0560   0.00534 -1.5569E-05 -8.4441E-04  8.4456E-04  -91.056
    15    1   -0.0563    0.0000    0.0520   0.00534 -1.4602E-05 -7.7828E-04  7.7841E-04  -91.075
    16    1   -0.0598    0.0000    0.0480   0.00534 -1.3575E-05 -7.1130E-04  7.1143E-04  -91.093
    17    1   -0.0634    0.0000    0.0440   0.00534 -1.2485E-05 -6.4345E-04  6.4357E-04  -91.112
    18    1   -0.0669    0.0000    0.0400   0.00534 -1.1333E-05 -5.7470E-04  5.7481E-04  -91.130
    19    1   -0.0705    0.0000    0.0360   0.00534 -1.0118E-05 -5.0501E-04  5.0511E-04  -91.148
    20    1   -0.0740    0.0000    0.0320   0.00534 -8.8370E-06 -4.3429E-04  4.3438E-04  -91.166
    21    1   -0.0775    0.0000    0.0280   0.00534 -7.4873E-06 -3.6241E-04  3.6249E-04  -91.184
    22    1   -0.0811    0.0000    0.0240   0.00534 -6.0634E-06 -2.8915E-04  2.8922E-04  -91.201
    23    1   -0.0846    0.0000    0.0200   0.00534 -4.5556E-06 -2.1409E-04  2.1414E-04  -91.219
    24    1   -0.0881    0.0000    0.0160   0.00534 -2.9424E-06 -1.3630E-04  1.3633E-04  -91.237
    25    1   -0.0917    0.0000    0.0120   0.00534 -1.1285E-06 -5.1544E-05  5.1556E-05  -91.254
    26    2    0.0068    0.0000    0.1081   0.00534  2.2533E-05  1.6483E-03  1.6484E-03   89.217
    27    2    0.0103    0.0000    0.1041   0.00534  2.2372E-05  1.5855E-03  1.5857E-03   89.192
    28    2    0.0138    0.0000    0.1001   0.00534  2.2148E-05  1.5248E-03  1.5249E-03   89.168
    29    2    0.0174    0.0000    0.0961   0.00534  2.1860E-05  1.4649E-03  1.4650E-03   89.145
    30    2    0.0209    0.0000    0.0921   0.00534  2.1509E-05  1.4052E-03  1.4054E-03   89.123
    31    2    0.0245    0.0000    0.0881   0.00534  2.1096E-05  1.3454E-03  1.3455E-03   89.102
    32    2    0.0280    0.0000    0.0841   0.00534  2.0621E-05  1.2851E-03  1.2853E-03   89.081
    33    2    0.0315    0.0000    0.0801   0.00534  2.0083E-05  1.2243E-03  1.2245E-03   89.060
    34    2    0.0351    0.0000    0.0761   0.00534  1.9484E-05  1.1629E-03  1.1631E-03   89.040
    35    2    0.0386    0.0000    0.0720   0.00534  1.8824E-05  1.1008E-03  1.1009E-03   89.020
    36    2    0.0422    0.0000    0.0680   0.00534  1.8102E-05  1.0379E-03  1.0380E-03   89.001
    37    2    0.0457    0.0000    0.0640   0.00534  1.7319E-05  9.7419E-04  9.7435E-04   88.982
    38    2    0.0492    0.0000    0.0600   0.00534  1.6474E-05  9.0971E-04  9.0986E-04   88.963
    39    2    0.0528    0.0000    0.0560   0.00534  1.5569E-05  8.4441E-04  8.4456E-04   88.944
    40    2    0.0563    0.0000    0.0520   0.00534  1.4602E-05  7.7828E-04  7.7841E-04   88.925
    41    2    0.0598    0.0000    0.0480   0.00534  1.3575E-05  7.1130E-04  7.1143E-04   88.907
    42    2    0.0634    0.0000    0.0440   0.00534  1.2485E-05  6.4345E-04  6.4357E-04   88.888
    43    2    0.0669    0.0000    0.0400   0.00534  1.1333E-05  5.7470E-04  5.7481E-04   88.870
    44    2    0.0705    0.0000    0.0360   0.00534  1.0118E-05  5.0501E-04  5.0511E-04   88.852
    45    2    0.0740    0.0000    0.0320   0.00534  8.8370E-06  4.3429E-04  4.3438E-04   88.834
    46    2    0.0775    0.0000    0.0280   0.00534  7.4873E-06  3.6241E-04  3.6249E-04   88.816
    47    2    0.0811    0.0000    0.0240   0.00534  6.0634E-06  2.8915E-04  2.8922E-04   88.799
    48    2    0.0846    0.0000    0.0200   0.00534  4.5556E-06  2.1409E-04  2.1414E-04   88.781
    49    2    0.0881    0.0000    0.0160   0.00534  2.9424E-06  1.3630E-04  1.3633E-04   88.763
    50    2    0.0917    0.0000    0.0120   0.00534  1.1285E-06  5.1544E-05  5.1556E-05   88.746
    51    3   -0.0040    0.0000    0.1101   0.00200  2.2606E-05  1.6944E-03  1.6946E-03   89.236
    52    3   -0.0020    0.0000    0.1101   0.00200  2.2628E-05  1.7251E-03  1.7252E-03   89.248
    53    3    0.0000    0.0000    0.1101   0.00200  2.2635E-05  1.7565E-03  1.7566E-03   89.262
    54    3    0.0020    0.0000    0.1101   0.00200  2.2628E-05  1.7251E-03  1.7252E-03   89.248
    55    3    0.0040    0.0000    0.1101   0.00200  2.2606E-05  1.6944E-03  1.6946E-03   89.236


                               ---------- POWER BUDGET ---------
                               INPUT POWER   =  1.1318E-05 Watts
                               RADIATED POWER=  1.1318E-05 Watts
                               STRUCTURE LOSS=  0.0000E+00 Watts
                               NETWORK LOSS  =  0.0000E+00 Watts
                               EFFICIENCY    =  100.00 Percent


                             ---------- RADIATION PATTERNS -----------

 ---- ANGLES -----     --- DIRECTIVE GAINS ---      ---- POLARIZATION ----   ---- E(THETA) ----    ----- E(PHI) ------
  THETA      PHI       VERTC    HORIZ    TOTAL       AXIAL      TILT  SENSE   MAGNITUDE    PHASE    MAGNITUDE     PHASE
 DEGREES   DEGREES        DB       DB       DB       RATIO   DEGREES            VOLTS/M   DEGREES     VOLTS/M   DEGREES
    0.00      0.00      1.90  -999.99     1.90      0.0000      0.00 LINEAR  3.2430E-02     27.48  0.0000E+00     -0.00
   10.00      0.00      1.77  -999.99     1.77      0.0000      0.00 LINEAR  3.1947E-02     27.45  0.0000E+00     -0.00
   20.00      0.00      1.37  -999.99     1.37      0.0000      0.00 LINEAR  3.0517E-02     27.41  0.0000E+00     -0.00
   30.00      0.00      0.69  -999.99     0.69      0.0000      0.00 LINEAR  2.8206E-02     27.47  0.0000E+00     -0.00
   40.00      0.00     -0.32  -999.99    -0.32      0.0000      0.00 LINEAR  2.5117E-02     27.88  0.0000E+00     -0.00
   50.00      0.00     -1.71  -999.99    -1.71      0.0000      0.00 LINEAR  2.1394E-02     29.08  0.0000E+00     -0.00
   60.00      0.00     -3.59  -999.99    -3.59      0.0000      0.00 LINEAR  1.7233E-02     32.06  0.0000E+00     -0.00
   70.00      0.00     -6.08  -999.99    -6.08      0.0000      0.00 LINEAR  1.2935E-02     39.03  0.0000E+00     -0.00
   80.00      0.00     -9.11  -999.99    -9.11      0.0000      0.00 LINEAR  9.1273E-03     55.49  0.0000E+00     -0.00
   90.00      0.00    -10.98  -999.99   -10.98      0.0000      0.00 LINEAR  7.3597E-03     88.97  0.0000E+00     -0.00
  100.00      0.00     -9.12  -999.99    -9.12      0.0000     -0.00 LINEAR  9.1140E-03    122.53  0.0000E+00     -0.00
  110.00      0.00     -6.09  -999.99    -6.09      0.0000     -0.00 LINEAR  1.2920E-02    139.05  0.0000E+00     -0.00
  120.00      0.00     -3.59  -999.99    -3.59      0.0000     -0.00 LINEAR  1.7222E-02    146.05  0.0000E+00     -0.00
  130.00      0.00     -1.71  -999.99    -1.71      0.0000     -0.00 LINEAR  2.1390E-02    149.04  0.0000E+00     -0.00
  140.00      0.00     -0.32  -999.99    -0.32      0.0000     -0.00 LINEAR  2.5120E-02    150.25  0.0000E+00     -0.00
  150.00      0.00      0.69  -999.99     0.69      0.0000     -0.00 LINEAR  2.8217E-02    150.65  0.0000E+00     -0.00
  160.00      0.00      1.38  -999.99     1.38      0.0000     -0.00 LINEAR  3.0534E-02    150.72  0.0000E+00     -0.00
  170.00      0.00      1.78  -999.99     1.78      0.0000     -0.00 LINEAR  3.1968E-02    150.68  0.0000E+00     -0.00
  180.00      0.00      1.91  -999.99     1.91      0.0000     -0.00 LINEAR  3.2454E-02    150.65  0.0000E+00     -0.00
    0.00     10.00      1.77   -13.30     1.90      0.0000    -10.00 LINEAR  3.1938E-02     27.48  5.6315E-03   -152.52
   10.00     10.00      1.64   -13.31     1.78      0.0012    -10.14 LEFT    3.1462E-02     27.45  5.6287E-03   -152.95
   20.00     10.00      1.24   -13.32     1.39      0.0051    -10.59 LEFT    3.0057E-02     27.41  5.6205E-03   -154.21
   30.00     10.00      0.56   -13.34     0.73      0.0127    -11.39 LEFT    2.7783E-02     27.47  5.6079E-03   -156.27
   40.00     10.00     -0.45   -13.36    -0.23      0.0261    -12.65 LEFT    2.4744E-02     27.87  5.5924E-03   -159.08
   50.00     10.00     -1.84   -13.39    -1.55      0.0500    -14.56 LEFT    2.1080E-02     29.08  5.5758E-03   -162.57
   60.00     10.00     -3.72   -13.41    -3.27      0.0956    -17.40 LEFT    1.6982E-02     32.05  5.5601E-03   -166.62
   70.00     10.00     -6.21   -13.43    -5.45      0.1904    -21.44 LEFT    1.2748E-02     39.02  5.5474E-03   -171.13
   80.00     10.00     -9.24   -13.45    -7.84      0.4069    -25.52 LEFT    8.9946E-03     55.48  5.5391E-03   -175.95
   90.00     10.00    -11.11   -13.45    -9.11      0.7635     -0.17 LEFT    7.2519E-03     88.97  5.5365E-03    179.07
  100.00     10.00     -9.25   -13.45    -7.85      0.4082     25.54 LEFT    8.9815E-03    122.54  5.5398E-03    174.09
  110.00     10.00     -6.22   -13.43    -5.46      0.1909     21.46 LEFT    1.2733E-02    139.06  5.5487E-03    169.26
  120.00     10.00     -3.72   -13.41    -3.28      0.0957     17.41 LEFT    1.6971E-02    146.06  5.5621E-03    164.76
  130.00     10.00     -1.84   -13.39    -1.55      0.0501     14.57 LEFT    2.1076E-02    149.04  5.5783E-03    160.70
  140.00     10.00     -0.45   -13.36    -0.23      0.0261     12.66 LEFT    2.4748E-02    150.25  5.5954E-03    157.21
  150.00     10.00      0.56   -13.33     0.74      0.0127     11.39 LEFT    2.7794E-02    150.66  5.6113E-03    154.40
  160.00     10.00      1.25   -13.31     1.40      0.0051     10.59 LEFT    3.0074E-02    150.72  5.6242E-03    152.34
  170.00     10.00      1.65   -13.30     1.78      0.0012     10.14 LEFT    3.1483E-02    150.68  5.6326E-03    151.08
  180.00     10.00      1.78   -13.30     1.91      0.0000     10.00 LINEAR  3.1960E-02    150.65  5.6355E-03    150.65
    0.00     20.00      1.36    -7.42     1.90      0.0000    -20.00 LINEAR  3.0475E-02     27.48  1.1092E-02   -152.52
   10.00     20.00      1.23    -7.42     1.79      0.0023    -20.27 LEFT    3.0023E-02     27.45  1.1087E-02   -152.95
   20.00     20.00      0.84    -7.43     1.44      0.0095    -21.10 LEFT    2.8688E-02     27.41  1.1074E-02   -154.21
   30.00     20.00      0.16    -7.45     0.85      0.0232    -22.59 LEFT    2.6528E-02     27.46  1.1053E-02   -156.28
   40.00     20.00     -0.84    -7.47     0.01      0.0465    -24.91 LEFT    2.3636E-02     27.86  1.1027E-02   -159.09
   50.00     20.00     -2.23    -7.49    -1.10      0.0855    -28.36 LEFT    2.0144E-02     29.06  1.0999E-02   -162.58
   60.00     20.00     -4.11    -7.51    -2.47      0.1519    -33.51 LEFT    1.6234E-02     32.03  1.0973E-02   -166.63
   70.00     20.00     -6.60    -7.53    -4.03      0.2674    -41.47 LEFT    1.2189E-02     38.99  1.0952E-02   -171.14
   80.00     20.00     -9.63    -7.54    -5.45      0.4602    -55.64 LEFT    8.5989E-03     55.45  1.0938E-02   -175.96
   90.00     20.00    -11.50    -7.54    -6.07      0.6339    -89.90 LEFT    6.9307E-03     88.97  1.0934E-02    179.07
  100.00     20.00     -9.64    -7.54    -5.45      0.4610     55.73 LEFT    8.5864E-03    122.57  1.0940E-02    174.09
  110.00     20.00     -6.61    -7.52    -4.03      0.2679     41.51 LEFT    1.2174E-02    139.09  1.0955E-02    169.27
  120.00     20.00     -4.11    -7.51    -2.48      0.1521     33.54 LEFT    1.6224E-02    146.08  1.0977E-02    164.77
  130.00     20.00     -2.23    -7.48    -1.10      0.0856     28.38 LEFT    2.0140E-02    149.06  1.1004E-02    160.71
  140.00     20.00     -0.84    -7.46     0.01      0.0465     24.91 LEFT    2.3639E-02    150.27  1.1033E-02    157.22
  150.00     20.00      0.16    -7.44     0.86      0.0232     22.59 LEFT    2.6538E-02    150.66  1.1059E-02    154.41
  160.00     20.00      0.84    -7.42     1.45      0.0095     21.10 LEFT    2.8705E-02    150.72  1.1081E-02    152.34
  170.00     20.00      1.24    -7.41     1.79      0.0023     20.27 LEFT    3.0044E-02    150.68  1.1095E-02    151.08
  180.00     20.00      1.37    -7.41     1.91      0.0000     20.00 LINEAR  3.0496E-02    150.65  1.1100E-02    150.65
    0.00     30.00      0.65    -4.12     1.90      0.0000    -30.00 LINEAR  2.8086E-02     27.48  1.6215E-02   -152.52
   10.00     30.00      0.53    -4.12     1.81      0.0030    -30.36 LEFT    2.7673E-02     27.45  1.6210E-02   -152.95
   20.00     30.00      0.13    -4.13     1.52      0.0126    -31.47 LEFT    2.6452E-02     27.40  1.6196E-02   -154.21
   30.00     30.00     -0.54    -4.14     1.03      0.0300    -33.44 LEFT    2.4473E-02     27.45  1.6174E-02   -156.29
   40.00     30.00     -1.54    -4.15     0.36      0.0580    -36.44 LEFT    2.1819E-02     27.84  1.6147E-02   -159.10
   50.00     30.00     -2.92    -4.17    -0.49      0.1008    -40.81 LEFT    1.8608E-02     29.04  1.6118E-02   -162.59
   60.00     30.00     -4.79    -4.18    -1.47      0.1637    -47.11 LEFT    1.5004E-02     31.99  1.6091E-02   -166.65
   70.00     30.00     -7.28    -4.20    -2.46      0.2505    -56.36 LEFT    1.1269E-02     38.94  1.6069E-02   -171.15
   80.00     30.00    -10.31    -4.20    -3.25      0.3483    -70.34 LEFT    7.9481E-03     55.40  1.6054E-02   -175.96
   90.00     30.00    -12.19    -4.21    -3.57      0.3989    -89.96 LEFT    6.4029E-03     88.97  1.6050E-02    179.07
  100.00     30.00    -10.32    -4.20    -3.25      0.3486     70.41 LEFT    7.9366E-03    122.62  1.6056E-02    174.10
  110.00     30.00     -7.29    -4.19    -2.46      0.2508     56.41 LEFT    1.1256E-02    139.14  1.6073E-02    169.28
  120.00     30.00     -4.80    -4.18    -1.47      0.1639     47.14 LEFT    1.4995E-02    146.12  1.6097E-02    164.78
  130.00     30.00     -2.92    -4.17    -0.49      0.1008     40.83 LEFT    1.8604E-02    149.09  1.6126E-02    160.72
  140.00     30.00     -1.54    -4.15     0.36      0.0581     36.46 LEFT    2.1822E-02    150.28  1.6156E-02    157.23
  150.00     30.00     -0.54    -4.13     1.04      0.0300     33.44 LEFT    2.4483E-02    150.67  1.6184E-02    154.41
  160.00     30.00      0.14    -4.12     1.52      0.0126     31.48 LEFT    2.6467E-02    150.73  1.6207E-02    152.34
  170.00     30.00      0.53    -4.11     1.81      0.0030     30.36 LEFT    2.7692E-02    150.68  1.6222E-02    151.08
  180.00     30.00      0.66    -4.11     1.91      0.0000     30.00 LINEAR  2.8106E-02    150.65  1.6227E-02    150.65
    0.00     40.00     -0.41    -1.94     1.90      0.0000    -40.00 LINEAR  2.4843E-02     27.48  2.0846E-02   -152.52
   10.00     40.00     -0.54    -1.94     1.83      0.0034    -40.41 LEFT    2.4482E-02     27.45  2.0843E-02   -152.95
   20.00     40.00     -0.93    -1.94     1.61      0.0140    -41.66 LEFT    2.3411E-02     27.40  2.0833E-02   -154.22
   30.00     40.00     -1.60    -1.95     1.24      0.0326    -43.84 LEFT    2.1674E-02     27.44  2.0819E-02   -156.30
   40.00     40.00     -2.59    -1.95     0.75      0.0605    -47.10 LEFT    1.9339E-02     27.82  2.0801E-02   -159.12
   50.00     40.00     -3.96    -1.96     0.16      0.0990    -51.67 LEFT    1.6506E-02     29.00  2.0782E-02   -162.61
   60.00     40.00     -5.83    -1.97    -0.47      0.1483    -57.92 LEFT    1.3319E-02     31.95  2.0764E-02   -166.67
   70.00     40.00     -8.31    -1.98    -1.07      0.2041    -66.30 LEFT    1.0006E-02     38.89  2.0749E-02   -171.17
   80.00     40.00    -11.35    -1.98    -1.50      0.2533    -77.16 LEFT    7.0558E-03     55.34  2.0740E-02   -175.97
   90.00     40.00    -13.23    -1.98    -1.67      0.2739    -89.97 LEFT    5.6805E-03     88.97  2.0738E-02    179.07
  100.00     40.00    -11.36    -1.98    -1.50      0.2534     77.21 LEFT    7.0456E-03    122.67  2.0742E-02    174.10
  110.00     40.00     -8.32    -1.97    -1.07      0.2042     66.33 LEFT    9.9947E-03    139.20  2.0754E-02    169.30
  120.00     40.00     -5.83    -1.97    -0.47      0.1484     57.94 LEFT    1.3310E-02    146.16  2.0771E-02    164.80
  130.00     40.00     -3.96    -1.96     0.16      0.0991     51.69 LEFT    1.6503E-02    149.12  2.0791E-02    160.74
  140.00     40.00     -2.59    -1.95     0.75      0.0605     47.11 LEFT    1.9342E-02    150.30  2.0812E-02    157.25
  150.00     40.00     -1.59    -1.94     1.25      0.0326     43.85 LEFT    2.1683E-02    150.69  2.0832E-02    154.42
  160.00     40.00     -0.92    -1.94     1.61      0.0140     41.67 LEFT    2.3425E-02    150.73  2.0847E-02    152.35
  170.00     40.00     -0.53    -1.93     1.83      0.0034     40.41 LEFT    2.4498E-02    150.68  2.0857E-02    151.08
  180.00     40.00     -0.41    -1.93     1.91      0.0000     40.00 LINEAR  2.4861E-02    150.65  2.0861E-02    150.65
    0.00     50.00     -1.94    -0.41     1.90      0.0000    -50.00 LINEAR  2.0846E-02     27.48  2.4843E-02   -152.52
   10.00     50.00     -2.06    -0.41     1.85      0.0034    -50.41 LEFT    2.0546E-02     27.44  2.4843E-02   -152.95
   20.00     50.00     -2.45    -0.41     1.70      0.0137    -51.65 LEFT    1.9657E-02     27.39  2.4844E-02   -154.23
   30.00     50.00     -3.11    -0.41     1.46      0.0311    -53.78 LEFT    1.8210E-02     27.43  2.4844E-02   -156.31
   40.00     50.00     -4.09    -0.41     1.14      0.0555    -56.87 LEFT    1.6262E-02     27.80  2.4844E-02   -159.14
   50.00     50.00     -5.46    -0.41     0.77      0.0863    -61.05 LEFT    1.3892E-02     28.97  2.4844E-02   -162.63
   60.00     50.00     -7.32    -0.41     0.39      0.1213    -66.46 LEFT    1.1217E-02     31.90  2.4844E-02   -166.69
   70.00     50.00     -9.80    -0.41     0.06      0.1559    -73.20 LEFT    8.4309E-03     38.82  2.4845E-02   -171.19
   80.00     50.00    -12.84    -0.41    -0.17      0.1824    -81.19 LEFT    5.9432E-03     55.28  2.4845E-02   -175.98
   90.00     50.00    -14.72    -0.41    -0.25      0.1924    -89.98 LEFT    4.7817E-03     88.97  2.4846E-02    179.06
  100.00     50.00    -12.85    -0.41    -0.17      0.1824     81.23 LEFT    5.9346E-03    122.74  2.4848E-02    174.11
  110.00     50.00     -9.81    -0.41     0.06      0.1560     73.23 LEFT    8.4212E-03    139.26  2.4851E-02    169.32
  120.00     50.00     -7.32    -0.41     0.40      0.1214     66.49 LEFT    1.1211E-02    146.20  2.4853E-02    164.82
  130.00     50.00     -5.46    -0.41     0.77      0.0863     61.07 LEFT    1.3889E-02    149.15  2.4856E-02    160.76
  140.00     50.00     -4.09    -0.41     1.14      0.0555     56.88 LEFT    1.6264E-02    150.33  2.4858E-02    157.27
  150.00     50.00     -3.11    -0.41     1.46      0.0311     53.78 LEFT    1.8218E-02    150.70  2.4859E-02    154.44
  160.00     50.00     -2.44    -0.41     1.70      0.0137     51.65 LEFT    1.9668E-02    150.74  2.4860E-02    152.35
  170.00     50.00     -2.06    -0.41     1.86      0.0034     50.41 LEFT    2.0560E-02    150.68  2.4861E-02    151.08
  180.00     50.00     -1.93    -0.41     1.91      0.0000     50.00 LINEAR  2.0861E-02    150.65  2.4861E-02    150.65
    0.00     60.00     -4.12     0.65     1.90      0.0000    -60.00 LINEAR  1.6215E-02     27.48  2.8086E-02   -152.52
   10.00     60.00     -4.24     0.65     1.87      0.0030    -60.36 LEFT    1.5984E-02     27.44  2.8090E-02   -152.95
   20.00     60.00     -4.62     0.66     1.79      0.0118    -61.44 LEFT    1.5299E-02     27.38  2.8102E-02   -154.23
   30.00     60.00     -5.28     0.66     1.65      0.0262    -63.27 LEFT    1.4183E-02     27.41  2.8121E-02   -156.32
   40.00     60.00     -6.26     0.67     1.47      0.0453    -65.86 LEFT    1.2675E-02     27.78  2.8144E-02   -159.15
   50.00     60.00     -7.62     0.68     1.28      0.0676    -69.25 LEFT    1.0836E-02     28.94  2.8169E-02   -162.65
   60.00     60.00     -9.47     0.69     1.09      0.0909    -73.45 LEFT    8.7562E-03     31.86  2.8192E-02   -166.71
   70.00     60.00    -11.95     0.69     0.92      0.1119    -78.42 LEFT    6.5834E-03     38.77  2.8212E-02   -171.20
   80.00     60.00    -14.99     0.70     0.81      0.1268    -84.02 LEFT    4.6396E-03     55.22  2.8225E-02   -175.99
   90.00     60.00    -16.88     0.70     0.77      0.1321    -89.99 LEFT    3.7306E-03     88.97  2.8230E-02    179.06
  100.00     60.00    -15.00     0.70     0.81      0.1268     84.05 LEFT    4.6330E-03    122.80  2.8228E-02    174.12
  110.00     60.00    -11.96     0.69     0.92      0.1120     78.45 LEFT    6.5760E-03    139.31  2.8218E-02    169.33
  120.00     60.00     -9.48     0.69     1.09      0.0910     73.47 LEFT    8.7509E-03    146.25  2.8202E-02    164.84
  130.00     60.00     -7.62     0.68     1.28      0.0677     69.26 LEFT    1.0835E-02    149.18  2.8182E-02    160.78
  140.00     60.00     -6.26     0.68     1.48      0.0453     65.87 LEFT    1.2677E-02    150.35  2.8160E-02    157.28
  150.00     60.00     -5.28     0.67     1.65      0.0262     63.27 LEFT    1.4188E-02    150.71  2.8139E-02    154.45
  160.00     60.00     -4.62     0.66     1.79      0.0118     61.44 LEFT    1.5308E-02    150.74  2.8121E-02    152.36
  170.00     60.00     -4.24     0.66     1.88      0.0030     60.36 LEFT    1.5995E-02    150.68  2.8110E-02    151.08
  180.00     60.00     -4.11     0.66     1.91      0.0000     60.00 LINEAR  1.6227E-02    150.65  2.8106E-02    150.65
    0.00     70.00     -7.42     1.36     1.90      0.0000    -70.00 LINEAR  1.1092E-02     27.48  3.0475E-02   -152.52
   10.00     70.00     -7.54     1.37     1.89      0.0022    -70.27 LEFT    1.0935E-02     27.44  3.0483E-02   -152.96
   20.00     70.00     -7.92     1.37     1.86      0.0087    -71.06 LEFT    1.0470E-02     27.38  3.0507E-02   -154.24
   30.00     70.00     -8.57     1.38     1.80      0.0188    -72.39 LEFT    9.7111E-03     27.40  3.0544E-02   -156.33
   40.00     70.00     -9.54     1.40     1.73      0.0317    -74.24 LEFT    8.6844E-03     27.76  3.0590E-02   -159.17
   50.00     70.00    -10.90     1.41     1.66      0.0461    -76.61 LEFT    7.4296E-03     28.91  3.0638E-02   -162.67
   60.00     70.00    -12.74     1.42     1.59      0.0602    -79.45 LEFT    6.0067E-03     31.82  3.0684E-02   -166.73
   70.00     70.00    -15.22     1.43     1.53      0.0722    -82.70 LEFT    4.5176E-03     38.72  3.0722E-02   -171.21
   80.00     70.00    -18.26     1.44     1.49      0.0803    -86.26 LEFT    3.1830E-03     55.17  3.0747E-02   -176.00
   90.00     70.00    -20.16     1.44     1.47      0.0832    -89.99 LEFT    2.5581E-03     88.97  3.0757E-02    179.06
  100.00     70.00    -18.27     1.44     1.49      0.0803     86.28 LEFT    3.1784E-03    122.84  3.0751E-02    174.13
  110.00     70.00    -15.23     1.43     1.53      0.0722     82.71 LEFT    4.5124E-03    139.36  3.0729E-02    169.34
  120.00     70.00    -12.75     1.43     1.59      0.0602     79.46 LEFT    6.0031E-03    146.28  3.0695E-02    164.85
  130.00     70.00    -10.90     1.41     1.66      0.0461     76.62 LEFT    7.4283E-03    149.21  3.0652E-02    160.80
  140.00     70.00     -9.54     1.40     1.74      0.0317     74.25 LEFT    8.6858E-03    150.37  3.0606E-02    157.29
  150.00     70.00     -8.57     1.39     1.81      0.0188     72.39 LEFT    9.7151E-03    150.72  3.0563E-02    154.46
  160.00     70.00     -7.91     1.38     1.86      0.0087     71.06 LEFT    1.0476E-02    150.75  3.0528E-02    152.36
  170.00     70.00     -7.53     1.37     1.90      0.0022     70.27 LEFT    1.0943E-02    150.69  3.0504E-02    151.08
  180.00     70.00     -7.41     1.37     1.91      0.0000     70.00 LINEAR  1.1100E-02    150.65  3.0496E-02    150.65
    0.00     80.00    -13.30     1.77     1.90      0.0000    -80.00 LINEAR  5.6315E-03     27.48  3.1938E-02   -152.52
   10.00     80.00    -13.43     1.77     1.90      0.0012    -80.14 LEFT    5.5524E-03     27.44  3.1949E-02   -152.96
   20.00     80.00    -13.80     1.78     1.90      0.0046    -80.56 LEFT    5.3174E-03     27.38  3.1982E-02   -154.24
   30.00     80.00    -14.45     1.80     1.90      0.0098    -81.26 LEFT    4.9337E-03     27.40  3.2032E-02   -156.33
   40.00     80.00    -15.42     1.81     1.89      0.0163    -82.22 LEFT    4.4139E-03     27.75  3.2093E-02   -159.18
   50.00     80.00    -16.77     1.83     1.89      0.0233    -83.43 LEFT    3.7778E-03     28.89  3.2159E-02   -162.68
   60.00     80.00    -18.61     1.85     1.89      0.0299    -84.86 LEFT    3.0554E-03     31.80  3.2221E-02   -166.74
   70.00     80.00    -21.09     1.86     1.88      0.0354    -86.46 LEFT    2.2983E-03     38.69  3.2272E-02   -171.22
   80.00     80.00    -24.13     1.87     1.88      0.0390    -88.20 LEFT    1.6191E-03     55.14  3.2307E-02   -176.01
   90.00     80.00    -26.03     1.87     1.88      0.0402    -90.00 LEFT    1.3008E-03     88.97  3.2320E-02    179.06
  100.00     80.00    -24.14     1.87     1.88      0.0390     88.20 LEFT    1.6168E-03    122.87  3.2311E-02    174.13
  110.00     80.00    -21.10     1.86     1.88      0.0354     86.47 LEFT    2.2958E-03    139.39  3.2280E-02    169.35
  120.00     80.00    -18.62     1.85     1.89      0.0299     84.86 LEFT    3.0535E-03    146.31  3.2233E-02    164.86
  130.00     80.00    -16.77     1.83     1.89      0.0233     83.44 LEFT    3.7771E-03    149.22  3.2174E-02    160.81
  140.00     80.00    -15.42     1.82     1.90      0.0163     82.23 LEFT    4.4146E-03    150.38  3.2111E-02    157.30
  150.00     80.00    -14.45     1.80     1.90      0.0098     81.26 LEFT    4.9357E-03    150.73  3.2051E-02    154.46
  160.00     80.00    -13.80     1.79     1.91      0.0046     80.56 LEFT    5.3205E-03    150.75  3.2003E-02    152.37
  170.00     80.00    -13.42     1.78     1.91      0.0012     80.14 LEFT    5.5562E-03    150.69  3.1971E-02    151.08
  180.00     80.00    -13.30     1.78     1.91      0.0000     80.00 LINEAR  5.6355E-03    150.65  3.1960E-02    150.65
    0.00     90.00   -999.99     1.90     1.90      0.0000     90.00 LINEAR  1.6551E-13   -152.52  3.2430E-02   -152.52
   10.00     90.00   -193.24     1.91     1.91      0.0000     90.00 LINEAR  5.6755E-12   -152.87  3.2443E-02   -152.96
   20.00     90.00   -187.47     1.92     1.92      0.0000     90.00 LINEAR  1.1024E-11   -154.12  3.2479E-02   -154.24
   30.00     90.00   -184.20     1.93     1.93      0.0000     90.00 LINEAR  1.6058E-11   -156.15  3.2533E-02   -156.34
   40.00     90.00   -182.03     1.95     1.95      0.0000     90.00 LINEAR  2.0626E-11   -158.92  3.2601E-02   -159.18
   50.00     90.00   -180.50     1.97     1.97      0.0000     90.00 LINEAR  2.4586E-11   -162.34  3.2673E-02   -162.68
   60.00     90.00   -179.43     1.99     1.99      0.0000     90.00 LINEAR  2.7811E-11   -166.30  3.2741E-02   -166.74
   70.00     90.00   -178.72     2.00     2.00      0.0000     90.00 LINEAR  3.0191E-11   -170.68  3.2797E-02   -171.23
   80.00     90.00   -178.31     2.01     2.01      0.0000     90.00 LINEAR  3.1642E-11   -175.35  3.2834E-02   -176.01
   90.00     90.00   -178.18     2.01     2.01      0.0000     90.00 LINEAR  3.2113E-11    179.84  3.2849E-02    179.06
  100.00     90.00   -178.33     2.01     2.01      0.0000     90.00 LINEAR  3.1587E-11    175.02  3.2838E-02    174.13
  110.00     90.00   -178.75     2.00     2.00      0.0000     90.00 LINEAR  3.0081E-11    170.34  3.2805E-02    169.35
  120.00     90.00   -179.48     1.99     1.99      0.0000     90.00 LINEAR  2.7651E-11    165.95  3.2752E-02    164.87
  130.00     90.00   -180.58     1.97     1.97      0.0000     90.00 LINEAR  2.4381E-11    161.98  3.2688E-02    160.81
  140.00     90.00   -182.13     1.95     1.95      0.0000     90.00 LINEAR  2.0380E-11    158.55  3.2618E-02    157.31
  150.00     90.00   -184.35     1.94     1.94      0.0000     90.00 LINEAR  1.5779E-11    155.77  3.2553E-02    154.46
  160.00     90.00   -187.71     1.92     1.92      0.0000     90.00 LINEAR  1.0720E-11    153.72  3.2500E-02    152.37
  170.00     90.00   -193.74     1.91     1.91      0.0000     90.00 LINEAR  5.3531E-12    152.48  3.2466E-02    151.08
  180.00     90.00   -999.99     1.91     1.91      0.0000    -90.00 LINEAR  1.6562E-13    -29.35  3.2454E-02    150.65
    0.00    100.00    -13.30     1.77     1.90      0.0000     80.00 LINEAR  5.6315E-03   -152.52  3.1938E-02   -152.52
   10.00    100.00    -13.43     1.77     1.90      0.0012     80.14 RIGHT   5.5524E-03   -152.56  3.1949E-02   -152.96
   20.00    100.00    -13.80     1.78     1.90      0.0046     80.56 RIGHT   5.3174E-03   -152.62  3.1982E-02   -154.24
   30.00    100.00    -14.45     1.80     1.90      0.0098     81.26 RIGHT   4.9337E-03   -152.60  3.2032E-02   -156.33
   40.00    100.00    -15.42     1.81     1.89      0.0163     82.22 RIGHT   4.4139E-03   -152.25  3.2093E-02   -159.18
   50.00    100.00    -16.77     1.83     1.89      0.0233     83.43 RIGHT   3.7778E-03   -151.11  3.2159E-02   -162.68
   60.00    100.00    -18.61     1.85     1.89      0.0299     84.86 RIGHT   3.0554E-03   -148.20  3.2221E-02   -166.74
   70.00    100.00    -21.09     1.86     1.88      0.0354     86.46 RIGHT   2.2983E-03   -141.31  3.2272E-02   -171.22
   80.00    100.00    -24.13     1.87     1.88      0.0390     88.20 RIGHT   1.6191E-03   -124.86  3.2307E-02   -176.01
   90.00    100.00    -26.03     1.87     1.88      0.0402     90.00 RIGHT   1.3008E-03    -91.03  3.2320E-02    179.06
  100.00    100.00    -24.14     1.87     1.88      0.0390    -88.20 RIGHT   1.6168E-03    -57.13  3.2311E-02    174.13
  110.00    100.00    -21.10     1.86     1.88      0.0354    -86.47 RIGHT   2.2958E-03    -40.61  3.2280E-02    169.35
  120.00    100.00    -18.62     1.85     1.89      0.0299    -84.86 RIGHT   3.0535E-03    -33.69  3.2233E-02    164.86
  130.00    100.00    -16.77     1.83     1.89      0.0233    -83.44 RIGHT   3.7771E-03    -30.78  3.2174E-02    160.81
  140.00    100.00    -15.42     1.82     1.90      0.0163    -82.23 RIGHT   4.4146E-03    -29.62  3.2111E-02    157.30
  150.00    100.00    -14.45     1.80     1.90      0.0098    -81.26 RIGHT   4.9357E-03    -29.27  3.2051E-02    154.46
  160.00    100.00    -13.80     1.79     1.91      0.0046    -80.56 RIGHT   5.3205E-03    -29.25  3.2003E-02    152.37
  170.00    100.00    -13.42     1.78     1.91      0.0012    -80.14 RIGHT   5.5562E-03    -29.31  3.1971E-02    151.08
  180.00    100.00    -13.30     1.78     1.91      0.0000    -80.00 LINEAR  5.6355E-03    -29.35  3.1960E-02    150.65
    0.00    110.00     -7.42     1.36     1.90      0.0000     70.00 LINEAR  1.1092E-02   -152.52  3.0475E-02   -152.52
   10.00    110.00     -7.54     1.37     1.89      0.0022     70.27 RIGHT   1.0935E-02   -152.56  3.0483E-02   -152.96
   20.00    110.00     -7.92     1.37     1.86      0.0087     71.06 RIGHT   1.0470E-02   -152.62  3.0507E-02   -154.24
   30.00    110.00     -8.57     1.38     1.80      0.0188     72.39 RIGHT   9.7111E-03   -152.60  3.0544E-02   -156.33
   40.00    110.00     -9.54     1.40     1.73      0.0317     74.24 RIGHT   8.6844E-03   -152.24  3.0590E-02   -159.17
   50.00    110.00    -10.90     1.41     1.66      0.0461     76.61 RIGHT   7.4296E-03   -151.09  3.0638E-02   -162.67
   60.00    110.00    -12.74     1.42     1.59      0.0602     79.45 RIGHT   6.0067E-03   -148.18  3.0684E-02   -166.73
   70.00    110.00    -15.22     1.43     1.53      0.0722     82.70 RIGHT   4.5176E-03   -141.28  3.0722E-02   -171.21
   80.00    110.00    -18.26     1.44     1.49      0.0803     86.26 RIGHT   3.1830E-03   -124.83  3.0747E-02   -176.00
   90.00    110.00    -20.16     1.44     1.47      0.0832     89.99 RIGHT   2.5581E-03    -91.03  3.0757E-02    179.06
  100.00    110.00    -18.27     1.44     1.49      0.0803    -86.28 RIGHT   3.1784E-03    -57.16  3.0751E-02    174.13
  110.00    110.00    -15.23     1.43     1.53      0.0722    -82.71 RIGHT   4.5124E-03    -40.64  3.0729E-02    169.34
  120.00    110.00    -12.75     1.43     1.59      0.0602    -79.46 RIGHT   6.0031E-03    -33.72  3.0695E-02    164.85
  130.00    110.00    -10.90     1.41     1.66      0.0461    -76.62 RIGHT   7.4283E-03    -30.79  3.0652E-02    160.80
  140.00    110.00     -9.54     1.40     1.74      0.0317    -74.25 RIGHT   8.6858E-03    -29.63  3.0606E-02    157.29
  150.00    110.00     -8.57     1.39     1.81      0.0188    -72.39 RIGHT   9.7151E-03    -29.28  3.0563E-02    154.46
  160.00    110.00     -7.91     1.38     1.86      0.0087    -71.06 RIGHT   1.0476E-02    -29.25  3.0528E-02    152.36
  170.00    110.00     -7.53     1.37     1.90      0.0022    -70.27 RIGHT   1.0943E-02    -29.31  3.0504E-02    151.08
  180.00    110.00     -7.41     1.37     1.91      0.0000    -70.00 LINEAR  1.1100E-02    -29.35  3.0496E-02    150.65
    0.00    120.00     -4.12     0.65     1.90      0.0000     60.00 LINEAR  1.6215E-02   -152.52  2.8086E-02   -152.52
   10.00    120.00     -4.24     0.65     1.87      0.0030     60.36 RIGHT   1.5984E-02   -152.56  2.8090E-02   -152.95
   20.00    120.00     -4.62     0.66     1.79      0.0118     61.44 RIGHT   1.5299E-02   -152.62  2.8102E-02   -154.23
   30.00    120.00     -5.28     0.66     1.65      0.0262     63.27 RIGHT   1.4183E-02   -152.59  2.8121E-02   -156.32
   40.00    120.00     -6.26     0.67     1.47      0.0453     65.86 RIGHT   1.2675E-02   -152.22  2.8144E-02   -159.15
   50.00    120.00     -7.62     0.68     1.28      0.0676     69.25 RIGHT   1.0836E-02   -151.06  2.8169E-02   -162.65
   60.00    120.00     -9.47     0.69     1.09      0.0909     73.45 RIGHT   8.7562E-03   -148.14  2.8192E-02   -166.71
   70.00    120.00    -11.95     0.69     0.92      0.1119     78.42 RIGHT   6.5834E-03   -141.23  2.8212E-02   -171.20
   80.00    120.00    -14.99     0.70     0.81      0.1268     84.02 RIGHT   4.6396E-03   -124.78  2.8225E-02   -175.99
   90.00    120.00    -16.88     0.70     0.77      0.1321     89.99 RIGHT   3.7306E-03    -91.03  2.8230E-02    179.06
  100.00    120.00    -15.00     0.70     0.81      0.1268    -84.05 RIGHT   4.6330E-03    -57.20  2.8228E-02    174.12
  110.00    120.00    -11.96     0.69     0.92      0.1120    -78.45 RIGHT   6.5760E-03    -40.69  2.8218E-02    169.33
  120.00    120.00     -9.48     0.69     1.09      0.0910    -73.47 RIGHT   8.7509E-03    -33.75  2.8202E-02    164.84
  130.00    120.00     -7.62     0.68     1.28      0.0677    -69.26 RIGHT   1.0835E-02    -30.82  2.8182E-02    160.78
  140.00    120.00     -6.26     0.68     1.48      0.0453    -65.87 RIGHT   1.2677E-02    -29.65  2.8160E-02    157.28
  150.00    120.00     -5.28     0.67     1.65      0.0262    -63.27 RIGHT   1.4188E-02    -29.29  2.8139E-02    154.45
  160.00    120.00     -4.62     0.66     1.79      0.0118    -61.44 RIGHT   1.5308E-02    -29.26  2.8121E-02    152.36
  170.00    120.00     -4.24     0.66     1.88      0.0030    -60.36 RIGHT   1.5995E-02    -29.32  2.8110E-02    151.08
  180.00    120.00     -4.11     0.66     1.91      0.0000    -60.00 LINEAR  1.6227E-02    -29.35  2.8106E-02    150.65
    0.00    130.00     -1.94    -0.41     1.90      0.0000     50.00 LINEAR  2.0846E-02   -152.52  2.4843E-02   -152.52
   10.00    130.00     -2.06    -0.41     1.85      0.0034     50.41 RIGHT   2.0546E-02   -152.56  2.4843E-02   -152.95
   20.00    130.00     -2.45    -0.41     1.70      0.0137     51.65 RIGHT   1.9657E-02   -152.61  2.4844E-02   -154.23
   30.00    130.00     -3.11    -0.41     1.46      0.0311     53.78 RIGHT   1.8210E-02   -152.57  2.4844E-02   -156.31
   40.00    130.00     -4.09    -0.41     1.14      0.0555     56.87 RIGHT   1.6262E-02   -152.20  2.4844E-02   -159.14
   50.00    130.00     -5.46    -0.41     0.77      0.0863     61.05 RIGHT   1.3892E-02   -151.03  2.4844E-02   -162.63
   60.00    130.00     -7.32    -0.41     0.39      0.1213     66.46 RIGHT   1.1217E-02   -148.10  2.4844E-02   -166.69
   70.00    130.00     -9.80    -0.41     0.06      0.1559     73.20 RIGHT   8.4309E-03   -141.18  2.4845E-02   -171.19
   80.00    130.00    -12.84    -0.41    -0.17      0.1824     81.19 RIGHT   5.9432E-03   -124.72  2.4845E-02   -175.98
   90.00    130.00    -14.72    -0.41    -0.25      0.1924     89.98 RIGHT   4.7817E-03    -91.03  2.4846E-02    179.06
  100.00    130.00    -12.85    -0.41    -0.17      0.1824    -81.23 RIGHT   5.9346E-03    -57.26  2.4848E-02    174.11
  110.00    130.00     -9.81    -0.41     0.06      0.1560    -73.23 RIGHT   8.4212E-03    -40.74  2.4851E-02    169.32
  120.00    130.00     -7.32    -0.41     0.40      0.1214    -66.49 RIGHT   1.1211E-02    -33.80  2.4853E-02    164.82
  130.00    130.00     -5.46    -0.41     0.77      0.0863    -61.07 RIGHT   1.3889E-02    -30.85  2.4856E-02    160.76
  140.00    130.00     -4.09    -0.41     1.14      0.0555    -56.88 RIGHT   1.6264E-02    -29.67  2.4858E-02    157.27
  150.00    130.00     -3.11    -0.41     1.46      0.0311    -53.78 RIGHT   1.8218E-02    -29.30  2.4859E-02    154.44
  160.00    130.00     -2.44    -0.41     1.70      0.0137    -51.65 RIGHT   1.9668E-02    -29.26  2.4860E-02    152.35
  170.00    130.00     -2.06    -0.41     1.86      0.0034    -50.41 RIGHT   2.0560E-02    -29.32  2.4861E-02    151.08
  180.00    130.00     -1.93    -0.41     1.91      0.0000    -50.00 LINEAR  2.0861E-02    -29.35  2.4861E-02    150.65
    0.00    140.00     -0.41    -1.94     1.90      0.0000     40.00 LINEAR  2.4843E-02   -152.52  2.0846E-02   -152.52
   10.00    140.00     -0.54    -1.94     1.83      0.0034     40.41 RIGHT   2.4482E-02   -152.55  2.0843E-02   -152.95
   20.00    140.00     -0.93    -1.94     1.61      0.0140     41.66 RIGHT   2.3411E-02   -152.60  2.0833E-02   -154.22
   30.00    140.00     -1.60    -1.95     1.24      0.0326     43.84 RIGHT   2.1674E-02   -152.56  2.0819E-02   -156.30
   40.00    140.00     -2.59    -1.95     0.75      0.0605     47.10 RIGHT   1.9339E-02   -152.18  2.0801E-02   -159.12
   50.00    140.00     -3.96    -1.96     0.16      0.0990     51.67 RIGHT   1.6506E-02   -151.00  2.0782E-02   -162.61
   60.00    140.00     -5.83    -1.97    -0.47      0.1483     57.92 RIGHT   1.3319E-02   -148.05  2.0764E-02   -166.67
   70.00    140.00     -8.31    -1.98    -1.07      0.2041     66.30 RIGHT   1.0006E-02   -141.11  2.0749E-02   -171.17
   80.00    140.00    -11.35    -1.98    -1.50      0.2533     77.16 RIGHT   7.0558E-03   -124.66  2.0740E-02   -175.97
   90.00    140.00    -13.23    -1.98    -1.67      0.2739     89.97 RIGHT   5.6805E-03    -91.03  2.0738E-02    179.07
  100.00    140.00    -11.36    -1.98    -1.50      0.2534    -77.21 RIGHT   7.0456E-03    -57.33  2.0742E-02    174.10
  110.00    140.00     -8.32    -1.97    -1.07      0.2042    -66.33 RIGHT   9.9947E-03    -40.80  2.0754E-02    169.30
  120.00    140.00     -5.83    -1.97    -0.47      0.1484    -57.94 RIGHT   1.3310E-02    -33.84  2.0771E-02    164.80
  130.00    140.00     -3.96    -1.96     0.16      0.0991    -51.69 RIGHT   1.6503E-02    -30.88  2.0791E-02    160.74
  140.00    140.00     -2.59    -1.95     0.75      0.0605    -47.11 RIGHT   1.9342E-02    -29.70  2.0812E-02    157.25
  150.00    140.00     -1.59    -1.94     1.25      0.0326    -43.85 RIGHT   2.1683E-02    -29.31  2.0832E-02    154.42
  160.00    140.00     -0.92    -1.94     1.61      0.0140    -41.67 RIGHT   2.3425E-02    -29.27  2.0847E-02    152.35
  170.00    140.00     -0.53    -1.93     1.83      0.0034    -40.41 RIGHT   2.4498E-02    -29.32  2.0857E-02    151.08
  180.00    140.00     -0.41    -1.93     1.91      0.0000    -40.00 LINEAR  2.4861E-02    -29.35  2.0861E-02    150.65
    0.00    150.00      0.65    -4.12     1.90      0.0000     30.00 LINEAR  2.8086E-02   -152.52  1.6215E-02   -152.52
   10.00    150.00      0.53    -4.12     1.81      0.0030     30.36 RIGHT   2.7673E-02   -152.55  1.6210E-02   -152.95
   20.00    150.00      0.13    -4.13     1.52      0.0126     31.47 RIGHT   2.6452E-02   -152.60  1.6196E-02   -154.21
   30.00    150.00     -0.54    -4.14     1.03      0.0300     33.44 RIGHT   2.4473E-02   -152.55  1.6174E-02   -156.29
   40.00    150.00     -1.54    -4.15     0.36      0.0580     36.44 RIGHT   2.1819E-02   -152.16  1.6147E-02   -159.10
   50.00    150.00     -2.92    -4.17    -0.49      0.1008     40.81 RIGHT   1.8608E-02   -150.96  1.6118E-02   -162.59
   60.00    150.00     -4.79    -4.18    -1.47      0.1637     47.11 RIGHT   1.5004E-02   -148.01  1.6091E-02   -166.65
   70.00    150.00     -7.28    -4.20    -2.46      0.2505     56.36 RIGHT   1.1269E-02   -141.06  1.6069E-02   -171.15
   80.00    150.00    -10.31    -4.20    -3.25      0.3483     70.34 RIGHT   7.9481E-03   -124.60  1.6054E-02   -175.96
   90.00    150.00    -12.19    -4.21    -3.57      0.3989     89.96 RIGHT   6.4029E-03    -91.03  1.6050E-02    179.07
  100.00    150.00    -10.32    -4.20    -3.25      0.3486    -70.41 RIGHT   7.9366E-03    -57.38  1.6056E-02    174.10
  110.00    150.00     -7.29    -4.19    -2.46      0.2508    -56.41 RIGHT   1.1256E-02    -40.86  1.6073E-02    169.28
  120.00    150.00     -4.80    -4.18    -1.47      0.1639    -47.14 RIGHT   1.4995E-02    -33.88  1.6097E-02    164.78
  130.00    150.00     -2.92    -4.17    -0.49      0.1008    -40.83 RIGHT   1.8604E-02    -30.91  1.6126E-02    160.72
  140.00    150.00     -1.54    -4.15     0.36      0.0581    -36.46 RIGHT   2.1822E-02    -29.72  1.6156E-02    157.23
  150.00    150.00     -0.54    -4.13     1.04      0.0300    -33.44 RIGHT   2.4483E-02    -29.33  1.6184E-02    154.41
  160.00    150.00      0.14    -4.12     1.52      0.0126    -31.48 RIGHT   2.6467E-02    -29.27  1.6207E-02    152.34
  170.00    150.00      0.53    -4.11     1.81      0.0030    -30.36 RIGHT   2.7692E-02    -29.32  1.6222E-02    151.08
  180.00    150.00      0.66    -4.11     1.91      0.0000    -30.00 LINEAR  2.8106E-02    -29.35  1.6227E-02    150.65
    0.00    160.00      1.36    -7.42     1.90      0.0000     20.00 LINEAR  3.0475E-02   -152.52  1.1092E-02   -152.52
   10.00    160.00      1.23    -7.42     1.79      0.0023     20.27 RIGHT   3.0023E-02   -152.55  1.1087E-02   -152.95
   20.00    160.00      0.84    -7.43     1.44      0.0095     21.10 RIGHT   2.8688E-02   -152.59  1.1074E-02   -154.21
   30.00    160.00      0.16    -7.45     0.85      0.0232     22.59 RIGHT   2.6528E-02   -152.54  1.1053E-02   -156.28
   40.00    160.00     -0.84    -7.47     0.01      0.0465     24.91 RIGHT   2.3636E-02   -152.14  1.1027E-02   -159.09
   50.00    160.00     -2.23    -7.49    -1.10      0.0855     28.36 RIGHT   2.0144E-02   -150.94  1.0999E-02   -162.58
   60.00    160.00     -4.11    -7.51    -2.47      0.1519     33.51 RIGHT   1.6234E-02   -147.97  1.0973E-02   -166.63
   70.00    160.00     -6.60    -7.53    -4.03      0.2674     41.47 RIGHT   1.2189E-02   -141.01  1.0952E-02   -171.14
   80.00    160.00     -9.63    -7.54    -5.45      0.4602     55.64 RIGHT   8.5989E-03   -124.55  1.0938E-02   -175.96
   90.00    160.00    -11.50    -7.54    -6.07      0.6339     89.90 RIGHT   6.9307E-03    -91.03  1.0934E-02    179.07
  100.00    160.00     -9.64    -7.54    -5.45      0.4610    -55.73 RIGHT   8.5864E-03    -57.43  1.0940E-02    174.09
  110.00    160.00     -6.61    -7.52    -4.03      0.2679    -41.51 RIGHT   1.2174E-02    -40.91  1.0955E-02    169.27
  120.00    160.00     -4.11    -7.51    -2.48      0.1521    -33.54 RIGHT   1.6224E-02    -33.92  1.0977E-02    164.77
  130.00    160.00     -2.23    -7.48    -1.10      0.0856    -28.38 RIGHT   2.0140E-02    -30.94  1.1004E-02    160.71
  140.00    160.00     -0.84    -7.46     0.01      0.0465    -24.91 RIGHT   2.3639E-02    -29.73  1.1033E-02    157.22
  150.00    160.00      0.16    -7.44     0.86      0.0232    -22.59 RIGHT   2.6538E-02    -29.34  1.1059E-02    154.41
  160.00    160.00      0.84    -7.42     1.45      0.0095    -21.10 RIGHT   2.8705E-02    -29.28  1.1081E-02    152.34
  170.00    160.00      1.24    -7.41     1.79      0.0023    -20.27 RIGHT   3.0044E-02    -29.32  1.1095E-02    151.08
  180.00    160.00      1.37    -7.41     1.91      0.0000    -20.00 LINEAR  3.0496E-02    -29.35  1.1100E-02    150.65
    0.00    170.00      1.77   -13.30     1.90      0.0000     10.00 LINEAR  3.1938E-02   -152.52  5.6315E-03   -152.52
   10.00    170.00      1.64   -13.31     1.78      0.0012     10.14 RIGHT   3.1462E-02   -152.55  5.6287E-03   -152.95
   20.00    170.00      1.24   -13.32     1.39      0.0051     10.59 RIGHT   3.0057E-02   -152.59  5.6205E-03   -154.21
   30.00    170.00      0.56   -13.34     0.73      0.0127     11.39 RIGHT   2.7783E-02   -152.53  5.6079E-03   -156.27
   40.00    170.00     -0.45   -13.36    -0.23      0.0261     12.65 RIGHT   2.4744E-02   -152.13  5.5924E-03   -159.08
   50.00    170.00     -1.84   -13.39    -1.55      0.0500     14.56 RIGHT   2.1080E-02   -150.92  5.5758E-03   -162.57
   60.00    170.00     -3.72   -13.41    -3.27      0.0956     17.40 RIGHT   1.6982E-02   -147.95  5.5601E-03   -166.62
   70.00    170.00     -6.21   -13.43    -5.45      0.1904     21.44 RIGHT   1.2748E-02   -140.98  5.5474E-03   -171.13
   80.00    170.00     -9.24   -13.45    -7.84      0.4069     25.52 RIGHT   8.9946E-03   -124.52  5.5391E-03   -175.95
   90.00    170.00    -11.11   -13.45    -9.11      0.7635      0.17 RIGHT   7.2519E-03    -91.03  5.5365E-03    179.07
  100.00    170.00     -9.25   -13.45    -7.85      0.4082    -25.54 RIGHT   8.9815E-03    -57.46  5.5398E-03    174.09
  110.00    170.00     -6.22   -13.43    -5.46      0.1909    -21.46 RIGHT   1.2733E-02    -40.94  5.5487E-03    169.26
  120.00    170.00     -3.72   -13.41    -3.28      0.0957    -17.41 RIGHT   1.6971E-02    -33.94  5.5621E-03    164.76
  130.00    170.00     -1.84   -13.39    -1.55      0.0501    -14.57 RIGHT   2.1076E-02    -30.96  5.5783E-03    160.70
  140.00    170.00     -0.45   -13.36    -0.23      0.0261    -12.66 RIGHT   2.4748E-02    -29.75  5.5954E-03    157.21
  150.00    170.00      0.56   -13.33     0.74      0.0127    -11.39 RIGHT   2.7794E-02    -29.34  5.6113E-03    154.40
  160.00    170.00      1.25   -13.31     1.40      0.0051    -10.59 RIGHT   3.0074E-02    -29.28  5.6242E-03    152.34
  170.00    170.00      1.65   -13.30     1.78      0.0012    -10.14 RIGHT   3.1483E-02    -29.32  5.6326E-03    151.08
  180.00    170.00      1.78   -13.30     1.91      0.0000    -10.00 LINEAR  3.1960E-02    -29.35  5.6355E-03    150.65
    0.00    180.00      1.90  -999.99     1.90      0.0000     -0.00 LINEAR  3.2430E-02   -152.52  3.3101E-13     27.48
   10.00    180.00      1.77  -999.99     1.77      0.0000     -0.00 LINEAR  3.1947E-02   -152.55  3.3083E-13     27.05
   20.00    180.00      1.37  -999.99     1.37      0.0000     -0.00 LINEAR  3.0517E-02   -152.59  3.3033E-13     25.79
   30.00    180.00      0.69  -999.99     0.69      0.0000     -0.00 LINEAR  2.8206E-02   -152.53  3.2955E-13     23.73
   40.00    180.00     -0.32  -999.99    -0.32      0.0000     -0.00 LINEAR  2.5117E-02   -152.12  3.2859E-13     20.92
   50.00    180.00     -1.71  -999.99    -1.71      0.0000     -0.00 LINEAR  2.1394E-02   -150.92  3.2756E-13     17.44
   60.00    180.00     -3.59  -999.99    -3.59      0.0000     -0.00 LINEAR  1.7233E-02   -147.94  3.2659E-13     13.38
   70.00    180.00     -6.08  -999.99    -6.08      0.0000     -0.00 LINEAR  1.2935E-02   -140.97  3.2580E-13      8.87
   80.00    180.00     -9.11  -999.99    -9.11      0.0000     -0.00 LINEAR  9.1273E-03   -124.51  3.2529E-13      4.05
   90.00    180.00    -10.98  -999.99   -10.98      0.0000     -0.00 LINEAR  7.3597E-03    -91.03  3.2512E-13     -0.93
  100.00    180.00     -9.12  -999.99    -9.12      0.0000      0.00 LINEAR  9.1140E-03    -57.47  3.2533E-13     -5.92
  110.00    180.00     -6.09  -999.99    -6.09      0.0000      0.00 LINEAR  1.2920E-02    -40.95  3.2588E-13    -10.74
  120.00    180.00     -3.59  -999.99    -3.59      0.0000      0.00 LINEAR  1.7222E-02    -33.95  3.2670E-13    -15.25
  130.00    180.00     -1.71  -999.99    -1.71      0.0000      0.00 LINEAR  2.1390E-02    -30.96  3.2770E-13    -19.31
  140.00    180.00     -0.32  -999.99    -0.32      0.0000      0.00 LINEAR  2.5120E-02    -29.75  3.2876E-13    -22.79
  150.00    180.00      0.69  -999.99     0.69      0.0000      0.00 LINEAR  2.8217E-02    -29.35  3.2975E-13    -25.60
  160.00    180.00      1.38  -999.99     1.38      0.0000      0.00 LINEAR  3.0534E-02    -29.28  3.3055E-13    -27.67
  170.00    180.00      1.78  -999.99     1.78      0.0000      0.00 LINEAR  3.1968E-02    -29.32  3.3107E-13    -28.92
  180.00    180.00      1.91  -999.99     1.91      0.0000      0.00 LINEAR  3.2454E-02    -29.35  3.3125E-13    -29.35
    0.00    190.00      1.77   -13.30     1.90      0.0000    -10.00 LINEAR  3.1938E-02   -152.52  5.6315E-03     27.48
   10.00    190.00      1.64   -13.31     1.78      0.0012    -10.14 LEFT    3.1462E-02   -152.55  5.6287E-03     27.05
   20.00    190.00      1.24   -13.32     1.39      0.0051    -10.59 LEFT    3.0057E-02   -152.59  5.6205E-03     25.79
   30.00    190.00      0.56   -13.34     0.73      0.0127    -11.39 LEFT    2.7783E-02   -152.53  5.6079E-03     23.73
   40.00    190.00     -0.45   -13.36    -0.23      0.0261    -12.65 LEFT    2.4744E-02   -152.13  5.5924E-03     20.92
   50.00    190.00     -1.84   -13.39    -1.55      0.0500    -14.56 LEFT    2.1080E-02   -150.92  5.5758E-03     17.43
   60.00    190.00     -3.72   -13.41    -3.27      0.0956    -17.40 LEFT    1.6982E-02   -147.95  5.5601E-03     13.38
   70.00    190.00     -6.21   -13.43    -5.45      0.1904    -21.44 LEFT    1.2748E-02   -140.98  5.5474E-03      8.87
   80.00    190.00     -9.24   -13.45    -7.84      0.4069    -25.52 LEFT    8.9946E-03   -124.52  5.5391E-03      4.05
   90.00    190.00    -11.11   -13.45    -9.11      0.7635     -0.17 LEFT    7.2519E-03    -91.03  5.5365E-03     -0.93
  100.00    190.00     -9.25   -13.45    -7.85      0.4082     25.54 LEFT    8.9815E-03    -57.46  5.5398E-03     -5.91
  110.00    190.00     -6.22   -13.43    -5.46      0.1909     21.46 LEFT    1.2733E-02    -40.94  5.5487E-03    -10.74
  120.00    190.00     -3.72   -13.41    -3.28      0.0957     17.41 LEFT    1.6971E-02    -33.94  5.5621E-03    -15.24
  130.00    190.00     -1.84   -13.39    -1.55      0.0501     14.57 LEFT    2.1076E-02    -30.96  5.5783E-03    -19.30
  140.00    190.00     -0.45   -13.36    -0.23      0.0261     12.66 LEFT    2.4748E-02    -29.75  5.5954E-03    -22.79
  150.00    190.00      0.56   -13.33     0.74      0.0127     11.39 LEFT    2.7794E-02    -29.34  5.6113E-03    -25.60
  160.00    190.00      1.25   -13.31     1.40      0.0051     10.59 LEFT    3.0074E-02    -29.28  5.6242E-03    -27.66
  170.00    190.00      1.65   -13.30     1.78      0.0012     10.14 LEFT    3.1483E-02    -29.32  5.6326E-03    -28.92
  180.00    190.00      1.78   -13.30     1.91      0.0000     10.00 LINEAR  3.1960E-02    -29.35  5.6355E-03    -29.35
    0.00    200.00      1.36    -7.42     1.90      0.0000    -20.00 LINEAR  3.0475E-02   -152.52  1.1092E-02     27.48
   10.00    200.00      1.23    -7.42     1.79      0.0023    -20.27 LEFT    3.0023E-02   -152.55  1.1087E-02     27.05
   20.00    200.00      0.84    -7.43     1.44      0.0095    -21.10 LEFT    2.8688E-02   -152.59  1.1074E-02     25.79
   30.00    200.00      0.16    -7.45     0.85      0.0232    -22.59 LEFT    2.6528E-02   -152.54  1.1053E-02     23.72
   40.00    200.00     -0.84    -7.47     0.01      0.0465    -24.91 LEFT    2.3636E-02   -152.14  1.1027E-02     20.91
   50.00    200.00     -2.23    -7.49    -1.10      0.0855    -28.36 LEFT    2.0144E-02   -150.94  1.0999E-02     17.42
   60.00    200.00     -4.11    -7.51    -2.47      0.1519    -33.51 LEFT    1.6234E-02   -147.97  1.0973E-02     13.37
   70.00    200.00     -6.60    -7.53    -4.03      0.2674    -41.47 LEFT    1.2189E-02   -141.01  1.0952E-02      8.86
   80.00    200.00     -9.63    -7.54    -5.45      0.4602    -55.64 LEFT    8.5989E-03   -124.55  1.0938E-02      4.04
   90.00    200.00    -11.50    -7.54    -6.07      0.6339    -89.90 LEFT    6.9307E-03    -91.03  1.0934E-02     -0.93
  100.00    200.00     -9.64    -7.54    -5.45      0.4610     55.73 LEFT    8.5864E-03    -57.43  1.0940E-02     -5.91
  110.00    200.00     -6.61    -7.52    -4.03      0.2679     41.51 LEFT    1.2174E-02    -40.91  1.0955E-02    -10.73
  120.00    200.00     -4.11    -7.51    -2.48      0.1521     33.54 LEFT    1.6224E-02    -33.92  1.0977E-02    -15.23
  130.00    200.00     -2.23    -7.48    -1.10      0.0856     28.38 LEFT    2.0140E-02    -30.94  1.1004E-02    -19.29
  140.00    200.00     -0.84    -7.46     0.01      0.0465     24.91 LEFT    2.3639E-02    -29.73  1.1033E-02    -22.78
  150.00    200.00      0.16    -7.44     0.86      0.0232     22.59 LEFT    2.6538E-02    -29.34  1.1059E-02    -25.59
  160.00    200.00      0.84    -7.42     1.45      0.0095     21.10 LEFT    2.8705E-02    -29.28  1.1081E-02    -27.66
  170.00    200.00      1.24    -7.41     1.79      0.0023     20.27 LEFT    3.0044E-02    -29.32  1.1095E-02    -28.92
  180.00    200.00      1.37    -7.41     1.91      0.0000     20.00 LINEAR  3.0496E-02    -29.35  1.1100E-02    -29.35
    0.00    210.00      0.65    -4.12     1.90      0.0000    -30.00 LINEAR  2.8086E-02   -152.52  1.6215E-02     27.48
   10.00    210.00      0.53    -4.12     1.81      0.0030    -30.36 LEFT    2.7673E-02   -152.55  1.6210E-02     27.05
   20.00    210.00      0.13    -4.13     1.52      0.0126    -31.47 LEFT    2.6452E-02   -152.60  1.6196E-02     25.79
   30.00    210.00     -0.54    -4.14     1.03      0.0300    -33.44 LEFT    2.4473E-02   -152.55  1.6174E-02     23.71
   40.00    210.00     -1.54    -4.15     0.36      0.0580    -36.44 LEFT    2.1819E-02   -152.16  1.6147E-02     20.90
   50.00    210.00     -2.92    -4.17    -0.49      0.1008    -40.81 LEFT    1.8608E-02   -150.96  1.6118E-02     17.41
   60.00    210.00     -4.79    -4.18    -1.47      0.1637    -47.11 LEFT    1.5004E-02   -148.01  1.6091E-02     13.35
   70.00    210.00     -7.28    -4.20    -2.46      0.2505    -56.36 LEFT    1.1269E-02   -141.06  1.6069E-02      8.85
   80.00    210.00    -10.31    -4.20    -3.25      0.3483    -70.34 LEFT    7.9481E-03   -124.60  1.6054E-02      4.04
   90.00    210.00    -12.19    -4.21    -3.57      0.3989    -89.96 LEFT    6.4029E-03    -91.03  1.6050E-02     -0.93
  100.00    210.00    -10.32    -4.20    -3.25      0.3486     70.41 LEFT    7.9366E-03    -57.38  1.6056E-02     -5.90
  110.00    210.00     -7.29    -4.19    -2.46      0.2508     56.41 LEFT    1.1256E-02    -40.86  1.6073E-02    -10.72
  120.00    210.00     -4.80    -4.18    -1.47      0.1639     47.14 LEFT    1.4995E-02    -33.88  1.6097E-02    -15.22
  130.00    210.00     -2.92    -4.17    -0.49      0.1008     40.83 LEFT    1.8604E-02    -30.91  1.6126E-02    -19.28
  140.00    210.00     -1.54    -4.15     0.36      0.0581     36.46 LEFT    2.1822E-02    -29.72  1.6156E-02    -22.77
  150.00    210.00     -0.54    -4.13     1.04      0.0300     33.44 LEFT    2.4483E-02    -29.33  1.6184E-02    -25.59
  160.00    210.00      0.14    -4.12     1.52      0.0126     31.48 LEFT    2.6467E-02    -29.27  1.6207E-02    -27.66
  170.00    210.00      0.53    -4.11     1.81      0.0030     30.36 LEFT    2.7692E-02    -29.32  1.6222E-02    -28.92
  180.00    210.00      0.66    -4.11     1.91      0.0000     30.00 LINEAR  2.8106E-02    -29.35  1.6227E-02    -29.35
    0.00    220.00     -0.41    -1.94     1.90      0.0000    -40.00 LINEAR  2.4843E-02   -152.52  2.0846E-02     27.48
   10.00    220.00     -0.54    -1.94     1.83      0.0034    -40.41 LEFT    2.4482E-02   -152.55  2.0843E-02     27.05
   20.00    220.00     -0.93    -1.94     1.61      0.0140    -41.66 LEFT    2.3411E-02   -152.60  2.0833E-02     25.78
   30.00    220.00     -1.60    -1.95     1.24      0.0326    -43.84 LEFT    2.1674E-02   -152.56  2.0819E-02     23.70
   40.00    220.00     -2.59    -1.95     0.75      0.0605    -47.10 LEFT    1.9339E-02   -152.18  2.0801E-02     20.88
   50.00    220.00     -3.96    -1.96     0.16      0.0990    -51.67 LEFT    1.6506E-02   -151.00  2.0782E-02     17.39
   60.00    220.00     -5.83    -1.97    -0.47      0.1483    -57.92 LEFT    1.3319E-02   -148.05  2.0764E-02     13.33
   70.00    220.00     -8.31    -1.98    -1.07      0.2041    -66.30 LEFT    1.0006E-02   -141.11  2.0749E-02      8.83
   80.00    220.00    -11.35    -1.98    -1.50      0.2533    -77.16 LEFT    7.0558E-03   -124.66  2.0740E-02      4.03
   90.00    220.00    -13.23    -1.98    -1.67      0.2739    -89.97 LEFT    5.6805E-03    -91.03  2.0738E-02     -0.93
  100.00    220.00    -11.36    -1.98    -1.50      0.2534     77.21 LEFT    7.0456E-03    -57.33  2.0742E-02     -5.90
  110.00    220.00     -8.32    -1.97    -1.07      0.2042     66.33 LEFT    9.9947E-03    -40.80  2.0754E-02    -10.70
  120.00    220.00     -5.83    -1.97    -0.47      0.1484     57.94 LEFT    1.3310E-02    -33.84  2.0771E-02    -15.20
  130.00    220.00     -3.96    -1.96     0.16      0.0991     51.69 LEFT    1.6503E-02    -30.88  2.0791E-02    -19.26
  140.00    220.00     -2.59    -1.95     0.75      0.0605     47.11 LEFT    1.9342E-02    -29.70  2.0812E-02    -22.75
  150.00    220.00     -1.59    -1.94     1.25      0.0326     43.85 LEFT    2.1683E-02    -29.31  2.0832E-02    -25.58
  160.00    220.00     -0.92    -1.94     1.61      0.0140     41.67 LEFT    2.3425E-02    -29.27  2.0847E-02    -27.65
  170.00    220.00     -0.53    -1.93     1.83      0.0034     40.41 LEFT    2.4498E-02    -29.32  2.0857E-02    -28.92
  180.00    220.00     -0.41    -1.93     1.91      0.0000     40.00 LINEAR  2.4861E-02    -29.35  2.0861E-02    -29.35
    0.00    230.00     -1.94    -0.41     1.90      0.0000    -50.00 LINEAR  2.0846E-02   -152.52  2.4843E-02     27.48
   10.00    230.00     -2.06    -0.41     1.85      0.0034    -50.41 LEFT    2.0546E-02   -152.56  2.4843E-02     27.05
   20.00    230.00     -2.45    -0.41     1.70      0.0137    -51.65 LEFT    1.9657E-02   -152.61  2.4844E-02     25.77
   30.00    230.00     -3.11    -0.41     1.46      0.0311    -53.78 LEFT    1.8210E-02   -152.57  2.4844E-02     23.69
   40.00    230.00     -4.09    -0.41     1.14      0.0555    -56.87 LEFT    1.6262E-02   -152.20  2.4844E-02     20.86
   50.00    230.00     -5.46    -0.41     0.77      0.0863    -61.05 LEFT    1.3892E-02   -151.03  2.4844E-02     17.37
   60.00    230.00     -7.32    -0.41     0.39      0.1213    -66.46 LEFT    1.1217E-02   -148.10  2.4844E-02     13.31
   70.00    230.00     -9.80    -0.41     0.06      0.1559    -73.20 LEFT    8.4309E-03   -141.18  2.4845E-02      8.81
   80.00    230.00    -12.84    -0.41    -0.17      0.1824    -81.19 LEFT    5.9432E-03   -124.72  2.4845E-02      4.02
   90.00    230.00    -14.72    -0.41    -0.25      0.1924    -89.98 LEFT    4.7817E-03    -91.03  2.4846E-02     -0.94
  100.00    230.00    -12.85    -0.41    -0.17      0.1824     81.23 LEFT    5.9346E-03    -57.26  2.4848E-02     -5.89
  110.00    230.00     -9.81    -0.41     0.06      0.1560     73.23 LEFT    8.4212E-03    -40.74  2.4851E-02    -10.68
  120.00    230.00     -7.32    -0.41     0.40      0.1214     66.49 LEFT    1.1211E-02    -33.80  2.4853E-02    -15.18
  130.00    230.00     -5.46    -0.41     0.77      0.0863     61.07 LEFT    1.3889E-02    -30.85  2.4856E-02    -19.24
  140.00    230.00     -4.09    -0.41     1.14      0.0555     56.88 LEFT    1.6264E-02    -29.67  2.4858E-02    -22.73
  150.00    230.00     -3.11    -0.41     1.46      0.0311     53.78 LEFT    1.8218E-02    -29.30  2.4859E-02    -25.56
  160.00    230.00     -2.44    -0.41     1.70      0.0137     51.65 LEFT    1.9668E-02    -29.26  2.4860E-02    -27.65
  170.00    230.00     -2.06    -0.41     1.86      0.0034     50.41 LEFT    2.0560E-02    -29.32  2.4861E-02    -28.92
  180.00    230.00     -1.93    -0.41     1.91      0.0000     50.00 LINEAR  2.0861E-02    -29.35  2.4861E-02    -29.35
    0.00    240.00     -4.12     0.65     1.90      0.0000    -60.00 LINEAR  1.6215E-02   -152.52  2.8086E-02     27.48
   10.00    240.00     -4.24     0.65     1.87      0.0030    -60.36 LEFT    1.5984E-02   -152.56  2.8090E-02     27.05
   20.00    240.00     -4.62     0.66     1.79      0.0118    -61.44 LEFT    1.5299E-02   -152.62  2.8102E-02     25.77
   30.00    240.00     -5.28     0.66     1.65      0.0262    -63.27 LEFT    1.4183E-02   -152.59  2.8121E-02     23.68
   40.00    240.00     -6.26     0.67     1.47      0.0453    -65.86 LEFT    1.2675E-02   -152.22  2.8144E-02     20.85
   50.00    240.00     -7.62     0.68     1.28      0.0676    -69.25 LEFT    1.0836E-02   -151.06  2.8169E-02     17.35
   60.00    240.00     -9.47     0.69     1.09      0.0909    -73.45 LEFT    8.7562E-03   -148.14  2.8192E-02     13.29
   70.00    240.00    -11.95     0.69     0.92      0.1119    -78.42 LEFT    6.5834E-03   -141.23  2.8212E-02      8.80
   80.00    240.00    -14.99     0.70     0.81      0.1268    -84.02 LEFT    4.6396E-03   -124.78  2.8225E-02      4.01
   90.00    240.00    -16.88     0.70     0.77      0.1321    -89.99 LEFT    3.7306E-03    -91.03  2.8230E-02     -0.94
  100.00    240.00    -15.00     0.70     0.81      0.1268     84.05 LEFT    4.6330E-03    -57.20  2.8228E-02     -5.88
  110.00    240.00    -11.96     0.69     0.92      0.1120     78.45 LEFT    6.5760E-03    -40.69  2.8218E-02    -10.67
  120.00    240.00     -9.48     0.69     1.09      0.0910     73.47 LEFT    8.7509E-03    -33.75  2.8202E-02    -15.16
  130.00    240.00     -7.62     0.68     1.28      0.0677     69.26 LEFT    1.0835E-02    -30.82  2.8182E-02    -19.22
  140.00    240.00     -6.26     0.68     1.48      0.0453     65.87 LEFT    1.2677E-02    -29.65  2.8160E-02    -22.72
  150.00    240.00     -5.28     0.67     1.65      0.0262     63.27 LEFT    1.4188E-02    -29.29  2.8139E-02    -25.55
  160.00    240.00     -4.62     0.66     1.79      0.0118     61.44 LEFT    1.5308E-02    -29.26  2.8121E-02    -27.64
  170.00    240.00     -4.24     0.66     1.88      0.0030     60.36 LEFT    1.5995E-02    -29.32  2.8110E-02    -28.92
  180.00    240.00     -4.11     0.66     1.91      0.0000     60.00 LINEAR  1.6227E-02    -29.35  2.8106E-02    -29.35
    0.00    250.00     -7.42     1.36     1.90      0.0000    -70.00 LINEAR  1.1092E-02   -152.52  3.0475E-02     27.48
   10.00    250.00     -7.54     1.37     1.89      0.0022    -70.27 LEFT    1.0935E-02   -152.56  3.0483E-02     27.04
   20.00    250.00     -7.92     1.37     1.86      0.0087    -71.06 LEFT    1.0470E-02   -152.62  3.0507E-02     25.76
   30.00    250.00     -8.57     1.38     1.80      0.0188    -72.39 LEFT    9.7111E-03   -152.60  3.0544E-02     23.67
   40.00    250.00     -9.54     1.40     1.73      0.0317    -74.24 LEFT    8.6844E-03   -152.24  3.0590E-02     20.83
   50.00    250.00    -10.90     1.41     1.66      0.0461    -76.61 LEFT    7.4296E-03   -151.09  3.0638E-02     17.33
   60.00    250.00    -12.74     1.42     1.59      0.0602    -79.45 LEFT    6.0067E-03   -148.18  3.0684E-02     13.27
   70.00    250.00    -15.22     1.43     1.53      0.0722    -82.70 LEFT    4.5176E-03   -141.28  3.0722E-02      8.79
   80.00    250.00    -18.26     1.44     1.49      0.0803    -86.26 LEFT    3.1830E-03   -124.83  3.0747E-02      4.00
   90.00    250.00    -20.16     1.44     1.47      0.0832    -89.99 LEFT    2.5581E-03    -91.03  3.0757E-02     -0.94
  100.00    250.00    -18.27     1.44     1.49      0.0803     86.28 LEFT    3.1784E-03    -57.16  3.0751E-02     -5.87
  110.00    250.00    -15.23     1.43     1.53      0.0722     82.71 LEFT    4.5124E-03    -40.64  3.0729E-02    -10.66
  120.00    250.00    -12.75     1.43     1.59      0.0602     79.46 LEFT    6.0031E-03    -33.72  3.0695E-02    -15.15
  130.00    250.00    -10.90     1.41     1.66      0.0461     76.62 LEFT    7.4283E-03    -30.79  3.0652E-02    -19.20
  140.00    250.00     -9.54     1.40     1.74      0.0317     74.25 LEFT    8.6858E-03    -29.63  3.0606E-02    -22.71
  150.00    250.00     -8.57     1.39     1.81      0.0188     72.39 LEFT    9.7151E-03    -29.28  3.0563E-02    -25.54
  160.00    250.00     -7.91     1.38     1.86      0.0087     71.06 LEFT    1.0476E-02    -29.25  3.0528E-02    -27.64
  170.00    250.00     -7.53     1.37     1.90      0.0022     70.27 LEFT    1.0943E-02    -29.31  3.0504E-02    -28.92
  180.00    250.00     -7.41     1.37     1.91      0.0000     70.00 LINEAR  1.1100E-02    -29.35  3.0496E-02    -29.35
    0.00    260.00    -13.30     1.77     1.90      0.0000    -80.00 LINEAR  5.6315E-03   -152.52  3.1938E-02     27.48
   10.00    260.00    -13.43     1.77     1.90      0.0012    -80.14 LEFT    5.5524E-03   -152.56  3.1949E-02     27.04
   20.00    260.00    -13.80     1.78     1.90      0.0046    -80.56 LEFT    5.3174E-03   -152.62  3.1982E-02     25.76
   30.00    260.00    -14.45     1.80     1.90      0.0098    -81.26 LEFT    4.9337E-03   -152.60  3.2032E-02     23.67
   40.00    260.00    -15.42     1.81     1.89      0.0163    -82.22 LEFT    4.4139E-03   -152.25  3.2093E-02     20.82
   50.00    260.00    -16.77     1.83     1.89      0.0233    -83.43 LEFT    3.7778E-03   -151.11  3.2159E-02     17.32
   60.00    260.00    -18.61     1.85     1.89      0.0299    -84.86 LEFT    3.0554E-03   -148.20  3.2221E-02     13.26
   70.00    260.00    -21.09     1.86     1.88      0.0354    -86.46 LEFT    2.2983E-03   -141.31  3.2272E-02      8.78
   80.00    260.00    -24.13     1.87     1.88      0.0390    -88.20 LEFT    1.6191E-03   -124.86  3.2307E-02      3.99
   90.00    260.00    -26.03     1.87     1.88      0.0402    -90.00 LEFT    1.3008E-03    -91.03  3.2320E-02     -0.94
  100.00    260.00    -24.14     1.87     1.88      0.0390     88.20 LEFT    1.6168E-03    -57.13  3.2311E-02     -5.87
  110.00    260.00    -21.10     1.86     1.88      0.0354     86.47 LEFT    2.2958E-03    -40.61  3.2280E-02    -10.65
  120.00    260.00    -18.62     1.85     1.89      0.0299     84.86 LEFT    3.0535E-03    -33.69  3.2233E-02    -15.14
  130.00    260.00    -16.77     1.83     1.89      0.0233     83.44 LEFT    3.7771E-03    -30.78  3.2174E-02    -19.19
  140.00    260.00    -15.42     1.82     1.90      0.0163     82.23 LEFT    4.4146E-03    -29.62  3.2111E-02    -22.70
  150.00    260.00    -14.45     1.80     1.90      0.0098     81.26 LEFT    4.9357E-03    -29.27  3.2051E-02    -25.54
  160.00    260.00    -13.80     1.79     1.91      0.0046     80.56 LEFT    5.3205E-03    -29.25  3.2003E-02    -27.63
  170.00    260.00    -13.42     1.78     1.91      0.0012     80.14 LEFT    5.5562E-03    -29.31  3.1971E-02    -28.92
  180.00    260.00    -13.30     1.78     1.91      0.0000     80.00 LINEAR  5.6355E-03    -29.35  3.1960E-02    -29.35
    0.00    270.00   -999.99     1.90     1.90      0.0000     90.00 LINEAR  4.9652E-13     27.48  3.2430E-02     27.48
   10.00    270.00   -194.30     1.91     1.91      0.0000    -90.00 LINEAR  5.0228E-12   -152.91  3.2443E-02     27.04
   20.00    270.00   -187.98     1.92     1.92      0.0000    -90.00 LINEAR  1.0400E-11   -154.20  3.2479E-02     25.76
   30.00    270.00   -184.52     1.93     1.93      0.0000    -90.00 LINEAR  1.5479E-11   -156.29  3.2533E-02     23.66
   40.00    270.00   -182.25     1.95     1.95      0.0000    -90.00 LINEAR  2.0110E-11   -159.09  3.2601E-02     20.82
   50.00    270.00   -180.66     1.97     1.97      0.0000    -90.00 LINEAR  2.4151E-11   -162.54  3.2673E-02     17.32
   60.00    270.00   -179.54     1.99     1.99      0.0000    -90.00 LINEAR  2.7469E-11   -166.53  3.2741E-02     13.26
   70.00    270.00   -178.79     2.00     2.00      0.0000    -90.00 LINEAR  2.9955E-11   -170.93  3.2797E-02      8.77
   80.00    270.00   -178.34     2.01     2.01      0.0000    -90.00 LINEAR  3.1521E-11   -175.61  3.2834E-02      3.99
   90.00    270.00   -178.18     2.01     2.01      0.0000    -90.00 LINEAR  3.2111E-11    179.56  3.2849E-02     -0.94
  100.00    270.00   -178.29     2.01     2.01      0.0000    -90.00 LINEAR  3.1704E-11    174.75  3.2838E-02     -5.87
  110.00    270.00   -178.68     2.00     2.00      0.0000    -90.00 LINEAR  3.0313E-11    170.08  3.2805E-02    -10.65
  120.00    270.00   -179.38     1.99     1.99      0.0000    -90.00 LINEAR  2.7990E-11    165.71  3.2752E-02    -15.13
  130.00    270.00   -180.42     1.97     1.97      0.0000    -90.00 LINEAR  2.4814E-11    161.76  3.2688E-02    -19.19
  140.00    270.00   -181.92     1.95     1.95      0.0000    -90.00 LINEAR  2.0894E-11    158.35  3.2618E-02    -22.69
  150.00    270.00   -184.04     1.94     1.94      0.0000    -90.00 LINEAR  1.6357E-11    155.59  3.2553E-02    -25.54
  160.00    270.00   -187.22     1.92     1.92      0.0000    -90.00 LINEAR  1.1344E-11    153.56  3.2500E-02    -27.63
  170.00    270.00   -192.74     1.91     1.91      0.0000    -90.00 LINEAR  6.0060E-12    152.28  3.2466E-02    -28.92
  180.00    270.00   -999.99     1.91     1.91      0.0000    -90.00 LINEAR  4.9687E-13    150.65  3.2454E-02    -29.35
    0.00    280.00    -13.30     1.77     1.90      0.0000     80.00 LINEAR  5.6315E-03     27.48  3.1938E-02     27.48
   10.00    280.00    -13.43     1.77     1.90      0.0012     80.14 RIGHT   5.5524E-03     27.44  3.1949E-02     27.04
   20.00    280.00    -13.80     1.78     1.90      0.0046     80.56 RIGHT   5.3174E-03     27.38  3.1982E-02     25.76
   30.00    280.00    -14.45     1.80     1.90      0.0098     81.26 RIGHT   4.9337E-03     27.40  3.2032E-02     23.67
   40.00    280.00    -15.42     1.81     1.89      0.0163     82.22 RIGHT   4.4139E-03     27.75  3.2093E-02     20.82
   50.00    280.00    -16.77     1.83     1.89      0.0233     83.43 RIGHT   3.7778E-03     28.89  3.2159E-02     17.32
[...]
   60.00    280.00     -6.03    -1.38    -0.10      0.5698    -81.97 RIGHT   7.1898E-02     95.65  1.2287E-01     -3.66
   70.00    280.00     -6.03    -3.42    -1.53      0.6262    -65.95 RIGHT   7.1875E-02     87.40  9.7056E-02    -22.46
   80.00    280.00     -6.74    -6.59    -3.65      0.5112    -45.80 RIGHT   6.6299E-02     83.23  6.7388E-02    -42.61
   90.00    280.00     -7.16   -13.23    -6.20      0.2485    -23.47 RIGHT   6.3124E-02     85.05  3.1403E-02    -59.01
  100.00    280.00     -6.62   -18.62    -6.35      0.1481     11.47 RIGHT   6.7223E-02     86.46  1.6879E-02     48.61
  110.00    280.00     -5.94    -6.67    -3.28      0.3402     41.93 RIGHT   7.2696E-02     81.94  6.6779E-02     44.21
  120.00    280.00     -6.04    -1.52    -0.20      0.4115     66.18 RIGHT   7.1808E-02     74.28  1.2092E-01     21.00
  130.00    280.00     -7.21     1.58     2.12      0.3384     82.40 RIGHT   6.2772E-02     68.80  1.7275E-01     -2.26
  140.00    280.00     -9.19     3.59     3.81      0.2290    -88.88 RIGHT   4.9991E-02     71.52  2.1754E-01    -23.08
  150.00    280.00    -10.71     4.88     5.00      0.1317    -84.21 RIGHT   4.1951E-02     86.55  2.5245E-01    -40.24
  160.00    280.00    -10.36     5.67     5.78      0.0592    -81.67 RIGHT   4.3684E-02    104.49  2.7660E-01    -52.98
  170.00    280.00     -9.30     6.10     6.22      0.0149    -80.39 RIGHT   4.9372E-02    114.01  2.9050E-01    -60.81
  180.00    280.00     -8.84     6.23     6.36      0.0000    -80.00 LINEAR  5.2016E-02    116.55  2.9500E-01    -63.45
    0.00    290.00     -5.81     2.96     3.50      0.0000     70.00 LINEAR  7.3716E-02     58.77  2.0253E-01     58.77
   10.00    290.00     -6.29     2.73     3.24      0.0351     70.60 RIGHT   6.9747E-02     62.95  1.9714E-01     56.55
   20.00    290.00     -7.11     2.02     2.52      0.1463     72.36 RIGHT   6.3471E-02     77.27  1.8156E-01     49.89
   30.00    290.00     -6.43     0.79     1.54      0.3511     75.39 RIGHT   6.8672E-02     97.45  1.5768E-01     38.82
   40.00    290.00     -4.27    -0.97     0.70      0.6740     82.72 RIGHT   8.8045E-02    107.42  1.2883E-01     23.23
   50.00    290.00     -2.49    -3.21     0.17      0.7950    -34.29 RIGHT   1.0804E-01    104.78  9.9483E-02      2.62
   60.00    290.00     -1.83    -5.74    -0.35      0.4853    -23.50 RIGHT   1.1659E-01     95.49  7.4329E-02    -24.46
   70.00    290.00     -2.38    -8.03    -1.33      0.2458    -24.89 RIGHT   1.0952E-01     85.17  5.7127E-02    -60.41
   80.00    290.00     -3.81    -9.24    -2.71      0.0425    -28.08 LEFT    9.2872E-02     80.27  4.9686E-02   -105.58
   90.00    290.00     -4.70    -9.11    -3.36      0.4732    -21.22 LEFT    8.3815E-02     85.35  5.0460E-02   -155.69
  100.00    290.00     -3.69    -8.10    -2.34      0.4817     20.66 LEFT    9.4168E-02     89.81  5.6674E-02    152.05
  110.00    290.00     -2.32    -6.22    -0.84      0.1160     32.19 LEFT    1.1019E-01     84.46  7.0338E-02     99.08
  120.00    290.00     -1.93    -3.47     0.38      0.2043     39.49 RIGHT   1.1531E-01     74.78  9.6526E-02     51.30
  130.00    290.00     -2.75    -0.57     1.48      0.4897     56.81 RIGHT   1.0487E-01     67.72  1.3476E-01     13.15
  140.00    290.00     -4.50     1.87     2.77      0.4786     87.44 RIGHT   8.5795E-02     70.07  1.7852E-01    -15.83
  150.00    290.00     -5.72     3.69     4.16      0.2721    -78.54 RIGHT   7.4559E-02     86.36  2.2006E-01    -37.17
  160.00    290.00     -4.88     4.91     5.34      0.1164    -73.16 RIGHT   8.2071E-02    105.03  2.5324E-01    -51.91
  170.00    290.00     -3.50     5.60     6.10      0.0283    -70.73 RIGHT   9.6192E-02    114.21  2.7430E-01    -60.59
  180.00    290.00     -2.95     5.82     6.36      0.0000    -70.00 LINEAR  1.0245E-01    116.55  2.8149E-01    -63.45
    0.00    300.00     -2.52     2.26     3.50      0.0000     60.00 LINEAR  1.0776E-01     58.77  1.8665E-01     58.77
   10.00    300.00     -3.18     1.84     3.03      0.0483     60.79 RIGHT   9.9778E-02     62.77  1.7789E-01     56.28
   20.00    300.00     -4.59     0.55     1.71      0.2149     62.82 RIGHT   8.4846E-02     77.54  1.5335E-01     48.54
   30.00    300.00     -4.51    -1.71     0.12      0.5817     64.49 RIGHT   8.5696E-02    100.52  1.1820E-01     34.37
   40.00    300.00     -2.65    -4.99    -0.65      0.7147    -17.88 RIGHT   1.0612E-01    111.71  8.1086E-02     10.40
   50.00    300.00     -1.33    -8.35    -0.54      0.2657    -19.81 RIGHT   1.2357E-01    107.42  5.5058E-02    -30.70
   60.00    300.00     -1.39    -8.64    -0.64      0.0198    -23.46 RIGHT   1.2262E-01     94.37  5.3263E-02    -82.52
   70.00    300.00     -3.07    -6.55    -1.46      0.1478    -33.30 LEFT    1.0112E-01     78.31  6.7765E-02   -119.92
   80.00    300.00     -6.55    -4.51    -2.40      0.3056    -53.07 LEFT    6.7755E-02     68.51  8.5681E-02   -146.55
   90.00    300.00     -9.61    -2.99    -2.13      0.4506    -82.90 LEFT    4.7642E-02     86.36  1.0206E-01   -171.40
  100.00    300.00     -6.41    -2.16    -0.78      0.4630     67.24 LEFT    6.8836E-02    102.40  1.1222E-01    161.21
  110.00    300.00     -3.13    -2.16     0.39      0.3324     49.02 LEFT    1.0036E-01     91.97  1.1230E-01    129.01
  120.00    300.00     -1.68    -2.70     0.85      0.1107     41.56 LEFT    1.1863E-01     76.61  1.0548E-01     89.33
  130.00    300.00     -1.84    -2.54     0.83      0.2123     42.47 RIGHT   1.1648E-01     65.93  1.0743E-01     41.88
  140.00    300.00     -3.18    -0.65     1.28      0.6196     64.77 RIGHT   9.9862E-02     67.39  1.3364E-01     -1.64
  150.00    300.00     -3.89     1.77     2.81      0.4303    -73.17 RIGHT   9.2026E-02     86.05  1.7645E-01    -31.64
  160.00    300.00     -2.23     3.64     4.64      0.1685    -64.27 RIGHT   1.1137E-01    105.95  2.1889E-01    -50.13
  170.00    300.00     -0.35     4.75     5.92      0.0388    -60.98 RIGHT   1.3829E-01    114.53  2.4876E-01    -60.23
  180.00    300.00      0.34     5.11     6.36      0.0000    -60.00 LINEAR  1.4978E-01    116.55  2.5942E-01    -63.45
    0.00    310.00     -0.33     1.19     3.50      0.0000     50.00 LINEAR  1.3854E-01     58.77  1.6511E-01     58.77
   10.00    310.00     -1.24     0.54     2.76      0.0564     50.87 RIGHT   1.2486E-01     62.53  1.5329E-01     55.94
   20.00    310.00     -3.42    -1.49     0.66      0.2725     52.35 RIGHT   9.7056E-02     77.91  1.2122E-01     46.58
   30.00    310.00     -4.14    -5.22    -1.64      0.7947     28.32 RIGHT   8.9406E-02    105.35  7.8912E-02     26.30
   40.00    310.00     -2.63    -9.88    -1.88      0.2543    -19.49 RIGHT   1.0637E-01    118.35  4.6179E-02    -20.81
   50.00    310.00     -2.03    -9.00    -1.23      0.1089    -23.53 LEFT    1.1398E-01    111.15  5.1099E-02    -85.60
   60.00    310.00     -3.35    -5.96    -1.45      0.2558    -35.27 LEFT    9.7922E-02     90.04  7.2463E-02   -120.10
   70.00    310.00     -6.79    -4.09    -2.22      0.1250    -54.04 LEFT    6.5889E-02     54.49  8.9877E-02   -140.47
   80.00    310.00    -11.85    -2.75    -2.25      0.1559    -72.54 RIGHT   3.6774E-02     -5.88  1.0488E-01   -156.70
   90.00    310.00    -14.21    -1.54    -1.31      0.2254     86.72 RIGHT   2.8027E-02    -97.46  1.2053E-01   -173.95
  100.00    310.00    -11.45    -0.66    -0.31      0.0550     74.18 RIGHT   3.8519E-02    176.94  1.3348E-01    165.07
  110.00    310.00     -7.09    -0.47     0.39      0.1441     66.03 LEFT    6.3627E-02    118.27  1.3644E-01    139.89
  120.00    310.00     -4.05    -1.23     0.59      0.2283     55.17 LEFT    9.0334E-02     82.61  1.2492E-01    109.80
  130.00    310.00     -3.03    -2.76     0.12      0.0641     45.91 LEFT    1.0152E-01     63.45  1.0478E-01     70.78
  140.00    310.00     -3.73    -3.11    -0.40      0.3926     47.79 RIGHT   9.3664E-02     62.93  1.0059E-01     19.93
  150.00    310.00     -3.72    -0.74     1.03      0.6159    -68.61 RIGHT   9.3765E-02     85.63  1.3215E-01    -23.26
  160.00    310.00     -0.87     1.88     3.73      0.2104    -54.80 RIGHT   1.3018E-01    107.23  1.7877E-01    -47.72
  170.00    310.00      1.65     3.51     5.69      0.0451    -51.11 RIGHT   1.7414E-01    114.93  2.1572E-01    -59.78
  180.00    310.00      2.53     4.05     6.36      0.0000    -50.00 LINEAR  1.9255E-01    116.55  2.2947E-01    -63.45
    0.00    320.00      1.19    -0.33     3.50      0.0000     40.00 LINEAR  1.6511E-01     58.77  1.3854E-01     58.77
   10.00    320.00      0.03    -1.22     2.46      0.0580     40.84 RIGHT   1.4454E-01     62.27  1.2504E-01     55.57
   20.00    320.00     -3.07    -4.12    -0.55      0.3060     40.81 RIGHT   1.0113E-01     78.38  8.9579E-02     44.07
   30.00    320.00     -4.70    -9.56    -3.47      0.5545     -8.37 RIGHT   8.3775E-02    112.40  4.7903E-02     12.20
   40.00    320.00     -3.49   -11.50    -2.85      0.0797    -21.30 LEFT    9.6301E-02    127.73  3.8312E-02    -65.60
   50.00    320.00     -4.02    -7.29    -2.35      0.3908    -30.39 LEFT    9.0585E-02    115.94  6.2227E-02   -110.65
   60.00    320.00     -7.25    -5.18    -3.08      0.2461    -52.64 LEFT    6.2509E-02     75.63  7.9293E-02   -132.88
   70.00    320.00     -7.46    -4.43    -2.68      0.2934    -56.76 RIGHT   6.0964E-02     -3.12  8.6469E-02   -148.12
   80.00    320.00     -3.62    -3.86    -0.73      0.8029    -41.30 RIGHT   9.4938E-02    -57.59  9.2334E-02   -159.97
   90.00    320.00     -2.16    -2.83     0.53      0.7994     34.65 RIGHT   1.1231E-01    -95.11  1.0388E-01   -173.18
  100.00    320.00     -3.39    -1.67     0.56      0.5539     55.81 RIGHT   9.7406E-02   -131.56  1.1873E-01    168.62
  110.00    320.00     -7.23    -1.01    -0.08      0.2313     66.59 RIGHT   6.2638E-02    179.68  1.2824E-01    145.84
  120.00    320.00     -8.70    -1.28    -0.56      0.1013     67.53 LEFT    5.2862E-02    103.45  1.2424E-01    119.60
  130.00    320.00     -6.00    -2.77    -1.08      0.2292     56.62 LEFT    7.2195E-02     60.23  1.0466E-01     88.00
  140.00    320.00     -5.64    -4.78    -2.18      0.1139     47.92 RIGHT   7.5181E-02     55.57  8.3038E-02     42.51
  150.00    320.00     -4.72    -3.65    -1.14      0.8372    -67.02 RIGHT   8.3640E-02     85.12  9.4574E-02    -12.20
  160.00    320.00     -0.27    -0.39     2.68      0.2339    -44.57 RIGHT   1.3951E-01    108.83  1.3765E-01    -44.83
  170.00    320.00      2.98     1.80     5.44      0.0462    -41.10 RIGHT   2.0298E-01    115.37  1.7720E-01    -59.29
  180.00    320.00      4.05     2.53     6.36      0.0000    -40.00 LINEAR  2.2947E-01    116.55  1.9255E-01    -63.45
    0.00    330.00      2.26    -2.52     3.50      0.0000     30.00 LINEAR  1.8665E-01     58.77  1.0776E-01     58.77
   10.00    330.00      0.86    -3.64     2.18      0.0524     30.70 RIGHT   1.5892E-01     62.02  9.4679E-02     55.20
   20.00    330.00     -3.20    -7.41    -1.80      0.2975     28.76 RIGHT   9.9622E-02     78.90  6.1375E-02     41.16
   30.00    330.00     -5.71   -14.05    -5.12      0.2699    -15.26 RIGHT   7.4598E-02    121.78  2.8550E-02     -9.31
   40.00    330.00     -4.64   -11.29    -3.79      0.3205    -18.83 LEFT    8.4387E-02    139.48  3.9261E-02    -89.98
   50.00    330.00     -6.92    -7.61    -4.24      0.5967    -40.23 LEFT    6.4894E-02    121.71  5.9977E-02   -120.28
   60.00    330.00    -10.61    -6.60    -5.15      0.0296    -57.80 RIGHT   4.2434E-02     37.21  6.7332E-02   -139.03
   70.00    330.00     -3.23    -6.93    -1.69      0.4883    -24.62 RIGHT   9.9258E-02    -31.91  6.4858E-02   -152.48
   80.00    330.00      0.81    -7.17     1.45      0.3968     -2.60 RIGHT   1.5800E-01    -65.40  6.3098E-02   -160.89
   90.00    330.00      2.02    -6.20     2.63      0.3725      6.31 RIGHT   1.8168E-01    -94.46  7.0537E-02   -170.29
  100.00    330.00      0.98    -4.56     2.05      0.4456     16.28 RIGHT   1.6121E-01   -122.87  8.5169E-02    172.96
  110.00    330.00     -2.75    -3.28     0.00      0.5371     41.84 RIGHT   1.0489E-01   -152.92  9.8686E-02    150.44
  120.00    330.00    -10.93    -2.94    -2.30      0.1856     70.54 RIGHT   4.0886E-02    156.67  1.0264E-01    125.21
  130.00    330.00    -10.90    -3.93    -3.13      0.2625     69.92 LEFT    4.1035E-02     55.92  9.1597E-02     97.08
  140.00    330.00     -8.46    -6.30    -4.24      0.1316     52.32 LEFT    5.4334E-02     43.18  6.9698E-02     58.66
  150.00    330.00     -6.55    -6.83    -3.68      0.9037     35.73 RIGHT   6.7703E-02     84.51  6.5565E-02      0.00
  160.00    330.00     -0.12    -3.28     1.59      0.2285    -33.62 RIGHT   1.4200E-01    110.61  9.8712E-02    -41.79
  170.00    330.00      3.87    -0.55     5.21      0.0416    -30.96 RIGHT   2.2470E-01    115.79  1.3510E-01    -58.81
  180.00    330.00      5.11     0.34     6.36      0.0000    -30.00 LINEAR  2.5942E-01    116.55  1.4978E-01    -63.45
    0.00    340.00      2.96    -5.81     3.50      0.0000     20.00 LINEAR  2.0253E-01     58.77  7.3716E-02     58.77
   10.00    340.00      1.37    -7.13     1.94      0.0397     20.50 RIGHT   1.6852E-01     61.80  6.3340E-02     54.88
   20.00    340.00     -3.55   -11.65    -2.93      0.2366     17.53 RIGHT   9.5640E-02     79.41  3.7643E-02     38.30
   30.00    340.00     -6.67   -18.16    -6.37      0.0679    -14.44 RIGHT   6.6803E-02    132.26  1.7789E-02    -31.96
   40.00    340.00     -5.56   -12.88    -4.82      0.3992     -9.23 LEFT    7.5937E-02    151.48  3.2662E-02   -100.08
   50.00    340.00    -10.25   -10.06    -7.14      0.7405    -47.10 LEFT    4.4248E-02    128.15  4.5205E-02   -124.93
   60.00    340.00     -9.13    -9.94    -6.50      0.3233    -41.70 RIGHT   5.0345E-02      1.07  4.5851E-02   -142.92
   70.00    340.00     -0.58   -11.30    -0.23      0.2560     -7.90 RIGHT   1.3466E-01    -39.46  3.9183E-02   -155.89
   80.00    340.00      2.92   -12.47     3.05      0.1696     -0.62 RIGHT   2.0156E-01    -67.08  3.4259E-02   -160.65
   90.00    340.00      3.97   -11.41     4.09      0.1609      3.18 RIGHT   2.2735E-01    -94.02  3.8689E-02   -165.48
  100.00    340.00      3.08    -9.11     3.33      0.2126      7.04 RIGHT   2.0519E-01   -120.44  5.0428E-02    178.19
  110.00    340.00     -0.12    -7.18     0.66      0.3630     14.49 RIGHT   1.4197E-01   -145.57  6.2991E-02    154.52
  120.00    340.00     -7.72    -6.25    -3.91      0.5565     54.28 RIGHT   5.9176E-02   -171.60  7.0102E-02    128.85
  130.00    340.00    -18.97    -6.72    -6.47      0.1944     81.57 LEFT    1.6219E-02     47.67  6.6381E-02    102.01
  140.00    340.00    -11.29    -8.93    -6.94      0.3845     55.47 LEFT    3.9266E-02     24.00  5.1524E-02     68.01
  150.00    340.00     -8.86   -10.64    -6.65      0.6952     27.29 RIGHT   5.1905E-02     83.80  4.2296E-02     10.65
  160.00    340.00     -0.19    -7.15     0.61      0.1853    -22.29 RIGHT   1.4087E-01    112.30  6.3199E-02    -39.03
  170.00    340.00      4.43    -3.99     5.01      0.0314    -20.71 RIGHT   2.3965E-01    116.15  9.0905E-02    -58.42
  180.00    340.00      5.82    -2.95     6.36      0.0000    -20.00 LINEAR  2.8149E-01    116.55  1.0245E-01    -63.45
    0.00    350.00      3.37   -11.70     3.50      0.0000     10.00 LINEAR  2.1226E-01     58.77  3.7426E-02     58.77
   10.00    350.00      1.64   -13.15     1.79      0.0214     10.25 RIGHT   1.7396E-01     61.65  3.1691E-02     54.67
   20.00    350.00     -3.89   -18.18    -3.73      0.1306      8.08 RIGHT   9.1988E-02     79.79  1.7749E-02     36.13
   30.00    350.00     -7.25   -23.85    -7.15      0.0180     -8.35 LEFT    6.2492E-02    140.77  9.2386E-03    -46.36
   40.00    350.00     -6.04   -17.90    -5.76      0.2539     -1.44 LEFT    7.1852E-02    160.34  1.8330E-02   -104.37
   50.00    350.00    -13.17   -15.64   -11.22      0.7249    -13.60 LEFT    3.1615E-02    134.22  2.3796E-02   -127.27
   60.00    350.00     -7.20   -16.11    -6.67      0.2429    -14.83 RIGHT   6.2870E-02    -11.61  2.2539E-02   -145.39
   70.00    350.00      0.69   -18.31     0.74      0.0996     -2.96 RIGHT   1.5584E-01    -41.44  1.7486E-02   -158.61
   80.00    350.00      3.88   -20.39     3.90      0.0611     -0.16 RIGHT   2.2514E-01    -67.29  1.3759E-02   -159.86
   90.00    350.00      4.84   -19.11     4.86      0.0580      1.47 RIGHT   2.5131E-01    -93.73  1.5953E-02   -159.92
  100.00    350.00      4.03   -16.13     4.07      0.0823      3.07 RIGHT   2.2888E-01   -119.70  2.2466E-02   -176.90
  110.00    350.00      1.12   -13.68     1.26      0.1544      5.50 RIGHT   1.6378E-01   -143.42  2.9807E-02    157.67
  120.00    350.00     -5.62   -12.32    -4.78      0.4056     12.74 RIGHT   7.5374E-02   -162.80  3.4857E-02    131.09
  130.00    350.00    -34.21   -12.43   -12.40      0.0659    -87.26 LEFT    2.8053E-03    -21.29  3.4436E-02    104.54
  140.00    350.00    -12.80   -14.40   -10.51      0.6546     31.43 LEFT    3.2992E-02      3.94  2.7432E-02     72.71
  150.00    350.00    -10.97   -16.70    -9.94      0.4450     15.16 RIGHT   4.0711E-02     83.12  2.1059E-02     17.58
  160.00    350.00     -0.31   -13.41    -0.10      0.1045    -11.04 RIGHT   1.3896E-01    113.55  3.0739E-02    -37.09
  170.00    350.00      4.74    -9.97     4.88      0.0169    -10.37 RIGHT   2.4834E-01    116.39  4.5659E-02    -58.15
  180.00    350.00      6.23    -8.84     6.36      0.0000    -10.00 LINEAR  2.9500E-01    116.55  5.2016E-02    -63.45
    0.00    360.00      3.50  -999.99     3.50      0.0000     -0.00 LINEAR  2.1553E-01     58.77  4.3997E-12   -121.23
   10.00    360.00      1.73  -999.99     1.73      0.0000     -0.00 LINEAR  1.7571E-01     61.60  3.7065E-12   -125.40
   20.00    360.00     -4.03  -999.99    -4.03      0.0000     -0.00 LINEAR  9.0550E-02     79.94  2.0326E-12   -144.69
   30.00    360.00     -7.42  -999.99    -7.42      0.0000      0.00 LINEAR  6.1252E-02    144.04  1.1085E-12    129.09
   40.00    360.00     -6.17  -999.99    -6.17      0.0000      0.00 LINEAR  7.0760E-02    163.55  2.2209E-12     74.41
   50.00    360.00    -14.39  -999.99   -14.39      0.0000      0.00 LINEAR  2.7451E-02    137.00  2.8210E-12     51.99
   60.00    360.00     -6.56  -999.99    -6.56      0.0000      0.00 LINEAR  6.7667E-02    -14.42  2.6071E-12     33.72
   70.00    360.00      1.06  -999.99     1.06      0.0000      0.00 LINEAR  1.6267E-01    -41.81  1.9458E-12     20.27
   80.00    360.00      4.16  -999.99     4.16      0.0000      0.00 LINEAR  2.3239E-01    -67.26  1.4581E-12     20.60
   90.00    360.00      5.08  -999.99     5.08      0.0000     -0.00 LINEAR  2.5853E-01    -93.63  1.7203E-12     22.80
  100.00    360.00      4.30  -999.99     4.30      0.0000     -0.00 LINEAR  2.3614E-01   -119.55  2.5072E-12      5.23
  110.00    360.00      1.48  -999.99     1.48      0.0000     -0.00 LINEAR  1.7076E-01   -142.96  3.4044E-12    -21.10
  120.00    360.00     -4.99  -999.99    -4.99      0.0000     -0.00 LINEAR  8.1048E-02   -160.91  4.0546E-12    -48.13
  130.00    360.00    -28.77  -999.99   -28.77      0.0000      0.00 LINEAR  5.2423E-03    -93.48  4.0677E-12    -74.67
  140.00    360.00    -13.09  -999.99   -13.09      0.0000     -0.00 LINEAR  3.1901E-02     -4.33  3.2747E-12   -105.87
  150.00    360.00    -11.87  -999.99   -11.87      0.0000     -0.00 LINEAR  3.6706E-02     82.80  2.4671E-12   -160.07
  160.00    360.00     -0.36  -999.99    -0.36      0.0000      0.00 LINEAR  1.3811E-01    114.02  3.5604E-12    143.61
  170.00    360.00      4.83  -999.99     4.83      0.0000      0.00 LINEAR  2.5118E-01    116.47  5.3474E-12    121.94
  180.00    360.00      6.36  -999.99     6.36      0.0000      0.00 LINEAR  2.9955E-01    116.55  6.1149E-12    116.55
  DATA CARD No:   4 EN   0     0     0     0  0.00000E+00  0.00000E+00  0.00000E+00  0.00000E+00  0.00000E+00  0.00000E+00

  TOTAL RUN TIME: 660 msec